@<TRIPOS>MOLECULE
SAMPL8-22_extra002
 27 28 0 0 0
SMALL
GASTEIGER

@<TRIPOS>ATOM
      1 C           3.8314    2.7921   -0.5231 C.3     1  LIG1        0.0785
      2 O           3.6858    1.4629   -0.0216 O.2     1  LIG1       -0.4951
      3 C           2.4208    0.9220    0.1508 C.2     1  LIG1        0.1472
      4 C           1.2425    1.6284   -0.1493 C.3     1  LIG1        0.0643
      5 C          -0.0321    1.0254    0.0467 C.ar    1  LIG1        0.0271
      6 C          -0.0716   -0.3036    0.5517 C.ar    1  LIG1        0.0521
      7 C           1.1029   -1.0088    0.8511 C.2     1  LIG1        0.0072
      8 C           2.3471   -0.3942    0.6498 C.2     1  LIG1        0.1599
      9 O           3.5468   -1.0296    0.9232 O.2     1  LIG1       -0.4917
     10 C           3.5473   -2.3640    1.4308 C.3     1  LIG1        0.0789
     11 N          -1.3011   -0.8783    0.7383 N.ar    1  LIG1       -0.3299
     12 C          -2.4522   -0.2475    0.4679 C.ar    1  LIG1        0.2028
     13 N          -2.4765    1.0169   -0.0143 N.ar    1  LIG1       -0.2041
     14 C          -1.2937    1.6332   -0.2180 C.ar    1  LIG1        0.1252
     15 N          -1.4159    2.9216   -0.7120 N.pl3   1  LIG1       -0.3428
     16 CL         -3.9459   -1.0678    0.7412 Cl      1  LIG1       -0.0428
     17 H           3.3669    3.5272    0.1361 H       1  LIG1        0.0660
     18 H           3.4114    2.8956   -1.5248 H       1  LIG1        0.0660
     19 H           4.8905    3.0413   -0.5895 H       1  LIG1        0.0660
     20 H           1.2811    2.6367   -0.5322 H       1  LIG1        0.0441
     21 H           1.0153   -2.0132    1.2312 H       1  LIG1        0.0676
     22 H           3.0394   -2.4317    2.3941 H       1  LIG1        0.0660
     23 H           3.0831   -3.0633    0.7336 H       1  LIG1        0.0660
     24 H           4.5746   -2.6944    1.5835 H       1  LIG1        0.0660
     25 H          -1.3532   -1.8180    1.0949 H       1  LIG1        0.1682
     26 H          -0.6040    3.4846   -0.9053 H       1  LIG1        0.1437
     27 H          -2.3422    3.2846   -0.8748 H       1  LIG1        0.1437
@<TRIPOS>BOND
     1    18     1    1
     2    26    15    1
     3    27    15    1
     4    15    14    1
     5    19     1    1
     6    20     4    1
     7     1     2    1
     8     1    17    1
     9    14    13   ar
    10    14     5   ar
    11     4     5    1
    12     4     3    1
    13     2     3    1
    14    13    12   ar
    15     5     6   ar
    16     3     8    2
    17    12    11   ar
    18    12    16    1
    19     6    11   ar
    20     6     7    2
    21     8     7    1
    22     8     9    1
    23    23    10    1
    24    11    25    1
    25     7    21    1
    26     9    10    1
    27    10    24    1
    28    10    22    1
