@<TRIPOS>MOLECULE
SAMPL8-14_extra004
 44 45 0 0 0
SMALL
GASTEIGER

@<TRIPOS>ATOM
      1 C           1.9278   -2.5583   -2.9855 C.3     1  LIG1       -0.0362
      2 C           1.9932   -2.2280   -1.4962 C.ar    1  LIG1       -0.0085
      3 C           1.6779   -3.2281   -0.5770 C.ar    1  LIG1       -0.0519
      4 C           1.7232   -2.9676    0.7898 C.ar    1  LIG1       -0.0420
      5 C           2.0940   -1.6994    1.2378 C.ar    1  LIG1       -0.0511
      6 C           2.4182   -0.6597    0.3455 C.ar    1  LIG1       -0.0001
      7 C           2.3609   -0.9511   -1.0396 C.ar    1  LIG1        0.1234
      8 O           2.6600   -0.0083   -1.9889 O.3     1  LIG1       -0.5062
      9 C           2.8209    0.7494    0.8870 C.3     1  LIG1       -0.0092
     10 C           1.8275    1.8289    0.3921 C.3     1  LIG1       -0.0559
     11 C           2.8104    0.8389    2.4384 C.3     1  LIG1       -0.0559
     12 C           4.2608    1.1114    0.4487 C.3     1  LIG1       -0.0559
     13 C           1.3844   -4.0604    1.7976 C.3     1  LIG1        0.0064
     14 C           0.0942   -3.7882    2.5813 C.2     1  LIG1        0.0587
     15 C          -1.1668   -3.7870    1.8721 C.2     1  LIG1        0.0392
     16 N          -2.2618   -3.5782    2.5106 N.2     1  LIG1       -0.2233
     17 C          -2.2120   -3.3610    3.8314 C.3     1  LIG1        0.3268
     18 N          -3.3457   -3.1485    4.4578 N.3     1  LIG1       -0.2651
     19 N          -1.0854   -3.3464    4.5535 N.pl3   1  LIG1       -0.1943
     20 C           0.0964   -3.5682    3.9153 C.2     1  LIG1        0.2613
     21 N           1.1813   -3.5345    4.7409 N.pl3   1  LIG1       -0.2512
     22 H           1.6247   -3.5901   -3.1705 H       1  LIG1        0.0279
     23 H           1.2132   -1.9086   -3.4927 H       1  LIG1        0.0279
     24 H           2.9014   -2.4112   -3.4552 H       1  LIG1        0.0279
     25 H           1.3959   -4.2127   -0.9267 H       1  LIG1        0.0624
     26 H           2.1165   -1.5483    2.3065 H       1  LIG1        0.0624
     27 H           2.5684   -0.3901   -2.8703 H       1  LIG1        0.2922
     28 H           0.8012    1.5793    0.6648 H       1  LIG1        0.0238
     29 H           1.8512    1.9624   -0.6881 H       1  LIG1        0.0238
     30 H           2.0473    2.8069    0.8228 H       1  LIG1        0.0238
     31 H           1.8214    0.6365    2.8524 H       1  LIG1        0.0238
     32 H           3.5146    0.1402    2.8925 H       1  LIG1        0.0238
     33 H           3.0938    1.8330    2.7882 H       1  LIG1        0.0238
     34 H           4.3596    1.2201   -0.6301 H       1  LIG1        0.0238
     35 H           4.5875    2.0587    0.8801 H       1  LIG1        0.0238
     36 H           4.9753    0.3497    0.7638 H       1  LIG1        0.0238
     37 H           1.2964   -5.0263    1.2940 H       1  LIG1        0.0364
     38 H           2.2420   -4.1798    2.4619 H       1  LIG1        0.0364
     39 H          -1.2178   -3.9590    0.7981 H       1  LIG1        0.0832
     40 H          -4.1875   -3.1615    3.9078 H       1  LIG1        0.1243
     41 H          -3.3978   -2.9790    5.4480 H       1  LIG1        0.1243
     42 H          -1.1155   -3.1795    5.5403 H       1  LIG1        0.2951
     43 H           2.1123   -3.6835    4.3779 H       1  LIG1        0.2881
     44 H           1.1185   -3.3712    5.7372 H       1  LIG1        0.2881
@<TRIPOS>BOND
     1    23     1    1
     2    24     1    1
     3    22     1    1
     4     1     2    1
     5    27     8    1
     6     8     7    1
     7     2     7   ar
     8     2     3   ar
     9     7     6   ar
    10    25     3    1
    11    29    10    1
    12    34    12    1
    13     3     4   ar
    14     6     9    1
    15     6     5   ar
    16    10    28    1
    17    10    30    1
    18    10     9    1
    19    12    36    1
    20    12    35    1
    21    12     9    1
    22     4     5   ar
    23     4    13    1
    24    39    15    1
    25     9    11    1
    26     5    26    1
    27    37    13    1
    28    13    38    1
    29    13    14    1
    30    15    16    2
    31    15    14    1
    32    11    33    1
    33    11    31    1
    34    11    32    1
    35    16    17    1
    36    14    20    2
    37    17    18    1
    38    17    19    1
    39    40    18    1
    40    20    19    1
    41    20    21    1
    42    43    21    1
    43    18    41    1
    44    19    42    1
    45    21    44    1
