@<TRIPOS>MOLECULE
SAMPL8-21_extra003
 42 43 0 0 0
SMALL
GASTEIGER

@<TRIPOS>ATOM
      1 C          -3.2551    3.1002   -0.9771 C.3     1  LIG1        0.0790
      2 O          -3.2725    1.7922   -1.5498 O.3     1  LIG1       -0.4913
      3 C          -2.5304    0.7804   -0.9603 C.ar    1  LIG1        0.1652
      4 C          -1.7326    0.9610    0.1807 C.ar    1  LIG1       -0.0126
      5 C          -1.0117   -0.1035    0.7244 C.ar    1  LIG1       -0.0358
      6 C          -1.0918   -1.3631    0.1280 C.ar    1  LIG1       -0.0126
      7 C          -1.8779   -1.5751   -1.0160 C.ar    1  LIG1        0.1652
      8 C          -2.5938   -0.4908   -1.5519 C.ar    1  LIG1        0.2010
      9 O          -3.3774   -0.6587   -2.6723 O.3     1  LIG1       -0.5009
     10 O          -1.9878   -2.8043   -1.6479 O.3     1  LIG1       -0.4913
     11 C          -1.2758   -3.9285   -1.1313 C.3     1  LIG1        0.0790
     12 C          -0.1648    0.0970    1.9758 C.3     1  LIG1        0.0056
     13 C           1.3173   -0.2339    1.7792 C.2     1  LIG1        0.0694
     14 C           2.1305    0.3584    0.8016 C.2     1  LIG1        0.2596
     15 N           1.6821    1.2267   -0.0970 N.pl3   1  LIG1       -0.2514
     16 N           3.4354    0.0519    0.7530 N.pl3   1  LIG1       -0.2012
     17 C           4.0383   -0.8082    1.5721 C.3     1  LIG1        0.2815
     18 N           5.3365   -1.0665    1.4841 N.3     1  LIG1       -0.2721
     19 N           3.2666   -1.3945    2.4838 N.3     1  LIG1       -0.2223
     20 C           1.9258   -1.1337    2.5841 C.3     1  LIG1        0.2018
     21 O           1.3463   -1.7723    3.6298 O.3     1  LIG1       -0.3537
     22 C           1.1421   -3.1782    3.4623 C.3     1  LIG1        0.0392
     23 H          -3.8938    3.7619   -1.5622 H       1  LIG1        0.0660
     24 H          -3.6378    3.0989    0.0448 H       1  LIG1        0.0660
     25 H          -2.2520    3.5296   -0.9809 H       1  LIG1        0.0660
     26 H          -1.6746    1.9271    0.6607 H       1  LIG1        0.0658
     27 H          -0.5323   -2.1740    0.5693 H       1  LIG1        0.0658
     28 H          -3.7962    0.1851   -2.8945 H       1  LIG1        0.2924
     29 H          -1.4781   -4.8022   -1.7509 H       1  LIG1        0.0660
     30 H          -1.5879   -4.1716   -0.1144 H       1  LIG1        0.0660
     31 H          -0.1972   -3.7638   -1.1434 H       1  LIG1        0.0660
     32 H          -0.6064   -0.4943    2.7804 H       1  LIG1        0.0362
     33 H          -0.2307    1.1318    2.3165 H       1  LIG1        0.0362
     34 H           0.6956    1.4312   -0.1348 H       1  LIG1        0.2881
     35 H           2.2821    1.6654   -0.7783 H       1  LIG1        0.2881
     36 H           3.9992    0.4883    0.0418 H       1  LIG1        0.2945
     37 H           5.7284   -1.9303    1.8282 H       1  LIG1        0.1237
     38 H           5.9787   -0.4083    1.0684 H       1  LIG1        0.1237
     39 H           3.7084   -1.9908    3.1640 H       1  LIG1        0.1307
     40 H           0.6232   -3.5762    4.3343 H       1  LIG1        0.0524
     41 H           0.5203   -3.3978    2.5928 H       1  LIG1        0.0524
     42 H           2.0753   -3.7348    3.3656 H       1  LIG1        0.0524
@<TRIPOS>BOND
     1    28     9    1
     2     9     8    1
     3    29    11    1
     4    10    11    1
     5    10     7    1
     6    23     1    1
     7     8     7   ar
     8     8     3   ar
     9     2     1    1
    10     2     3    1
    11    31    11    1
    12    11    30    1
    13     7     6   ar
    14    25     1    1
    15     1    24    1
    16     3     4   ar
    17    35    15    1
    18    34    15    1
    19    15    14    1
    20    36    16    1
    21     6    27    1
    22     6     5   ar
    23     4    26    1
    24     4     5   ar
    25     5    12    1
    26    16    14    1
    27    16    17    1
    28    14    13    2
    29    38    18    1
    30    18    17    1
    31    18    37    1
    32    17    19    1
    33    13    12    1
    34    13    20    1
    35    12    33    1
    36    12    32    1
    37    19    20    1
    38    19    39    1
    39    20    21    1
    40    41    22    1
    41    42    22    1
    42    22    21    1
    43    22    40    1
