@<TRIPOS>MOLECULE
SAMPL8-12_extra001
 43 45 0 0 0
SMALL
GASTEIGER

@<TRIPOS>ATOM
      1 C          -5.9862    7.4209   -3.4651 C.3     1  LIG1       -0.0397
      2 C          -5.3231    6.3455   -2.6250 C.ar    1  LIG1       -0.0504
      3 C          -4.5891    6.7014   -1.4930 C.ar    1  LIG1       -0.0586
      4 C          -3.9873    5.7146   -0.7165 C.ar    1  LIG1       -0.0580
      5 C          -4.1114    4.3687   -1.0710 C.ar    1  LIG1       -0.0430
      6 C          -4.8661    4.0153   -2.1956 C.ar    1  LIG1       -0.0580
      7 C          -5.4682    5.0019   -2.9718 C.ar    1  LIG1       -0.0586
      8 C          -3.4304    3.3039   -0.2125 C.3     1  LIG1        0.0027
      9 C          -2.8902    2.0931   -0.9819 C.2     1  LIG1        0.0377
     10 C          -3.2367    0.8531   -0.5652 C.3     1  LIG1        0.0615
     11 N          -2.8906   -0.2554   -1.2908 N.3     1  LIG1       -0.2497
     12 C          -2.2576   -0.1755   -2.4601 C.3     1  LIG1        0.2795
     13 N          -1.9187    1.0462   -2.8680 N.pl3   1  LIG1       -0.2011
     14 C          -2.1273    2.1763   -2.1654 C.2     1  LIG1        0.2612
     15 N          -1.5955    3.3128   -2.6477 N.pl3   1  LIG1       -0.2210
     16 C          -0.5691    4.0440   -1.8743 C.3     1  LIG1        0.1037
     17 C          -0.5787    5.5520   -2.1900 C.3     1  LIG1        0.0837
     18 O          -0.4992    5.7432   -3.5986 O.3     1  LIG1       -0.3724
     19 C          -1.6249    5.1959   -4.2767 C.3     1  LIG1        0.0837
     20 C          -1.6313    3.6684   -4.0843 C.3     1  LIG1        0.1037
     21 N          -1.9724   -1.2545   -3.1829 N.3     1  LIG1       -0.2722
     22 H          -6.8856    7.0442   -3.9534 H       1  LIG1        0.0278
     23 H          -6.3011    8.2620   -2.8464 H       1  LIG1        0.0278
     24 H          -5.3019    7.7908   -4.2287 H       1  LIG1        0.0278
     25 H          -4.4822    7.7408   -1.2129 H       1  LIG1        0.0620
     26 H          -3.4199    6.0050    0.1575 H       1  LIG1        0.0620
     27 H          -4.9881    2.9784   -2.4770 H       1  LIG1        0.0620
     28 H          -6.0456    4.7186   -3.8417 H       1  LIG1        0.0620
     29 H          -4.1479    2.9956    0.5507 H       1  LIG1        0.0361
     30 H          -2.6029    3.7485    0.3412 H       1  LIG1        0.0361
     31 H          -3.8411    0.6504    0.3101 H       1  LIG1        0.0530
     32 H          -3.1531   -1.1727   -0.9619 H       1  LIG1        0.1281
     33 H          -1.4044    1.1150   -3.7329 H       1  LIG1        0.2945
     34 H          -0.6892    3.8295   -0.8150 H       1  LIG1        0.0749
     35 H           0.3865    3.6013   -2.1538 H       1  LIG1        0.0749
     36 H           0.2756    6.0384   -1.7160 H       1  LIG1        0.0597
     37 H          -1.4656    6.0398   -1.7814 H       1  LIG1        0.0597
     38 H          -1.5573    5.4416   -5.3380 H       1  LIG1        0.0597
     39 H          -2.5566    5.6436   -3.9201 H       1  LIG1        0.0597
     40 H          -0.7584    3.2152   -4.5537 H       1  LIG1        0.0749
     41 H          -2.5107    3.2059   -4.5319 H       1  LIG1        0.0749
     42 H          -1.4938   -1.1883   -4.0695 H       1  LIG1        0.1237
     43 H          -2.2246   -2.1838   -2.8781 H       1  LIG1        0.1237
@<TRIPOS>BOND
     1    38    19    1
     2    40    20    1
     3    41    20    1
     4    19    20    1
     5    19    39    1
     6    19    18    1
     7    24     1    1
     8    20    15    1
     9    42    21    1
    10    22     1    1
    11    28     7    1
    12    33    13    1
    13    18    17    1
    14     1    23    1
    15     1     2    1
    16    21    43    1
    17    21    12    1
    18     7     2   ar
    19     7     6   ar
    20    13    12    1
    21    13    14    1
    22    15    14    1
    23    15    16    1
    24     2     3   ar
    25    27     6    1
    26    12    11    1
    27     6     5   ar
    28    17    16    1
    29    17    37    1
    30    17    36    1
    31    14     9    2
    32    35    16    1
    33    16    34    1
    34     3    25    1
    35     3     4   ar
    36    11    32    1
    37    11    10    1
    38     5     4   ar
    39     5     8    1
    40     9    10    1
    41     9     8    1
    42     4    26    1
    43    10    31    1
    44     8    30    1
    45     8    29    1
