@<TRIPOS>MOLECULE
SAMPL8-3_extra001
 33 34 0 0 0
SMALL
GASTEIGER

@<TRIPOS>ATOM
      1 C           4.2942   -2.1961   -1.2695 C.ar    1  LIG1       -0.0236
      2 C           3.2831   -1.6698   -0.4619 C.ar    1  LIG1       -0.0192
      3 C           3.8781   -0.7311    0.3680 C.ar    1  LIG1        0.1217
      4 O           5.2085   -0.6677    0.0968 O.2     1  LIG1       -0.4662
      5 C           5.4646   -1.5566   -0.8974 C.ar    1  LIG1        0.0921
      6 C           3.3644    0.1847    1.4521 C.3     1  LIG1        0.0673
      7 N           3.4946    1.5930    0.9810 N.pl3   1  LIG1       -0.3363
      8 C           3.1372    2.6961    1.6433 C.ar    1  LIG1        0.0375
      9 C           2.5657    2.6008    2.9293 C.ar    1  LIG1       -0.0202
     10 C           2.1793    3.6766    3.6632 C.ar    1  LIG1        0.0690
     11 C           2.3380    5.0286    3.1487 C.ar    1  LIG1        0.1238
     12 C           2.8825    5.1568    1.9186 C.ar    1  LIG1       -0.0237
     13 C           3.3176    4.0036    1.0822 C.ar    1  LIG1        0.0393
     14 C           3.8581    4.2108   -0.1537 C.3     1  LIG1        0.2539
     15 O           4.2955    3.2721   -1.0198 O.3     1  LIG1       -0.3568
     16 O           4.0517    5.4140   -0.7335 O.3     1  LIG1       -0.3568
     17 S           1.8280    6.4532    4.1334 S.O2    1  LIG1        0.0574
     18 O           0.3668    6.4314    4.2570 O.2     1  LIG1       -0.1532
     19 O           2.6790    6.5226    5.3259 O.2     1  LIG1       -0.1532
     20 N           2.1995    7.8461    3.2113 N.3     1  LIG1       -0.2035
     21 CL          1.4755    3.3860    5.2617 Cl      1  LIG1       -0.0815
     22 H           4.1880   -2.9542   -2.0353 H       1  LIG1        0.0649
     23 H           2.2345   -1.9399   -0.4784 H       1  LIG1        0.0652
     24 H           6.4926   -1.6263   -1.2304 H       1  LIG1        0.1029
     25 H           2.3090    0.0143    1.6728 H       1  LIG1        0.0542
     26 H           3.9368    0.0950    2.3773 H       1  LIG1        0.0542
     27 H           3.9063    1.7248    0.0564 H       1  LIG1        0.1465
     28 H           2.4212    1.6247    3.3679 H       1  LIG1        0.0651
     29 H           3.0018    6.1628    1.5376 H       1  LIG1        0.0642
     30 H           4.6105    3.7648   -1.7863 H       1  LIG1        0.2133
     31 H           3.7390    6.0925   -0.1300 H       1  LIG1        0.2133
     32 H           1.3343    8.3732    3.0969 H       1  LIG1        0.1442
     33 H           2.8505    8.4074    3.7597 H       1  LIG1        0.1442
@<TRIPOS>BOND
     1    22     1    1
     2    30    15    1
     3     1     5   ar
     4     1     2   ar
     5    24     5    1
     6    15    14    1
     7     5     4   ar
     8    16    14    1
     9    16    31    1
    10    23     2    1
    11     2     3   ar
    12    14    13    1
    13    27     7    1
    14     4     3   ar
    15     3     6    1
    16     7     6    1
    17     7     8    1
    18    13     8   ar
    19    13    12   ar
    20     6    25    1
    21     6    26    1
    22    29    12    1
    23     8     9   ar
    24    12    11   ar
    25     9    28    1
    26     9    10   ar
    27    32    20    1
    28    11    10   ar
    29    11    17    1
    30    20    33    1
    31    20    17    1
    32    10    21    1
    33    17    18    2
    34    17    19    2
