@<TRIPOS>MOLECULE
SAMPL8-12_extra005
 43 45 0 0 0
SMALL
GASTEIGER

@<TRIPOS>ATOM
      1 C           2.5364    4.6156  -10.5402 C.3     1  LIG1       -0.0397
      2 C           2.0516    3.9858   -9.2475 C.ar    1  LIG1       -0.0504
      3 C           2.7266    4.2432   -8.0533 C.ar    1  LIG1       -0.0586
      4 C           2.2909    3.6564   -6.8678 C.ar    1  LIG1       -0.0580
      5 C           1.1777    2.8116   -6.8752 C.ar    1  LIG1       -0.0432
      6 C           0.5107    2.5458   -8.0741 C.ar    1  LIG1       -0.0580
      7 C           0.9470    3.1328   -9.2590 C.ar    1  LIG1       -0.0586
      8 C           0.7013    2.1581   -5.5806 C.3     1  LIG1       -0.0019
      9 C          -0.6985    2.5993   -5.1286 C.2     1  LIG1       -0.0138
     10 C          -0.9983    3.9534   -4.8876 C.2     1  LIG1       -0.0054
     11 N          -2.2438    4.2650   -4.4820 N.pl3   1  LIG1       -0.3162
     12 C          -3.2344    3.3689   -4.2892 C.3     1  LIG1        0.1881
     13 N          -2.9580    2.0745   -4.5178 N.3     1  LIG1       -0.2550
     14 C          -1.7010    1.6838   -4.9318 C.3     1  LIG1        0.1361
     15 N          -1.5930    0.3130   -5.1119 N.3     1  LIG1       -0.2738
     16 C          -1.5065   -0.5973   -3.9492 C.3     1  LIG1        0.0245
     17 C          -0.8726   -1.9551   -4.3363 C.3     1  LIG1        0.0605
     18 O          -1.5915   -2.5451   -5.4213 O.3     1  LIG1       -0.3772
     19 C          -1.5496   -1.7119   -6.5815 C.3     1  LIG1        0.0605
     20 C          -2.2125   -0.3461   -6.2822 C.3     1  LIG1        0.0245
     21 N          -4.4456    3.7492   -3.8866 N.3     1  LIG1       -0.2937
     22 H           2.0913    5.6008  -10.6799 H       1  LIG1        0.0278
     23 H           3.6214    4.7245  -10.5388 H       1  LIG1        0.0278
     24 H           2.2903    3.9941  -11.4018 H       1  LIG1        0.0278
     25 H           3.5882    4.8974   -8.0403 H       1  LIG1        0.0620
     26 H           2.8236    3.8642   -5.9494 H       1  LIG1        0.0620
     27 H          -0.3453    1.8851   -8.0926 H       1  LIG1        0.0620
     28 H           0.4248    2.9231  -10.1829 H       1  LIG1        0.0620
     29 H           1.4041    2.3699   -4.7720 H       1  LIG1        0.0360
     30 H           0.7620    1.0761   -5.7128 H       1  LIG1        0.0360
     31 H          -0.2816    4.7535   -5.0166 H       1  LIG1        0.0779
     32 H          -2.4589    5.2389   -4.3191 H       1  LIG1        0.1487
     33 H          -3.6590    1.3704   -4.3723 H       1  LIG1        0.1275
     34 H          -2.4578   -0.7135   -3.4246 H       1  LIG1        0.0450
     35 H          -0.8591   -0.1513   -3.1897 H       1  LIG1        0.0450
     36 H           0.1843   -1.8282   -4.5816 H       1  LIG1        0.0572
     37 H          -0.8882   -2.6266   -3.4767 H       1  LIG1        0.0572
     38 H          -0.5255   -1.5713   -6.9347 H       1  LIG1        0.0572
     39 H          -2.0717   -2.2017   -7.4046 H       1  LIG1        0.0572
     40 H          -2.0645    0.2777   -7.1673 H       1  LIG1        0.0450
     41 H          -3.3004   -0.4150   -6.2092 H       1  LIG1        0.0450
     42 H          -5.2678    3.1906   -4.0698 H       1  LIG1        0.1216
     43 H          -4.5965    4.6101   -3.3784 H       1  LIG1        0.1216
@<TRIPOS>BOND
     1    24     1    1
     2    22     1    1
     3     1    23    1
     4     1     2    1
     5    28     7    1
     6     7     2   ar
     7     7     6   ar
     8     2     3   ar
     9    27     6    1
    10     6     5   ar
    11     3    25    1
    12     3     4   ar
    13    39    19    1
    14    40    20    1
    15    38    19    1
    16     5     4   ar
    17     5     8    1
    18     4    26    1
    19    19    20    1
    20    19    18    1
    21    20    41    1
    22    20    15    1
    23    30     8    1
    24     8     9    1
    25     8    29    1
    26    18    17    1
    27     9    14    1
    28     9    10    2
    29    15    14    1
    30    15    16    1
    31    31    10    1
    32    14    13    1
    33    10    11    1
    34    36    17    1
    35    13    33    1
    36    13    12    1
    37    11    32    1
    38    11    12    1
    39    17    16    1
    40    17    37    1
    41    12    21    1
    42    42    21    1
    43    16    34    1
    44    16    35    1
    45    21    43    1
