@<TRIPOS>MOLECULE
SAMPL8-12_extra003
 43 45 0 0 0
SMALL
GASTEIGER

@<TRIPOS>ATOM
      1 C          -6.2629   -1.4807    5.2406 C.3     1  LIG1       -0.0397
      2 C          -4.9126   -0.9000    4.8644 C.ar    1  LIG1       -0.0504
      3 C          -3.8540   -1.7493    4.5383 C.ar    1  LIG1       -0.0586
      4 C          -2.6203   -1.2143    4.1771 C.ar    1  LIG1       -0.0580
      5 C          -2.4448    0.1713    4.1362 C.ar    1  LIG1       -0.0427
      6 C          -3.5036    1.0194    4.4719 C.ar    1  LIG1       -0.0580
      7 C          -4.7381    0.4842    4.8296 C.ar    1  LIG1       -0.0586
      8 C          -1.0963    0.7560    3.7216 C.3     1  LIG1        0.0063
      9 C          -1.1371    1.7847    2.5792 C.2     1  LIG1        0.0573
     10 C          -0.4807    2.9601    2.7390 C.2     1  LIG1        0.0056
     11 N          -0.4751    3.8672    1.7093 N.pl3   1  LIG1       -0.2873
     12 C          -1.1163    3.5493    0.5706 C.3     1  LIG1        0.3505
     13 N          -1.7873    2.3994    0.3805 N.2     1  LIG1       -0.0349
     14 C          -1.8319    1.5311    1.3227 C.2     1  LIG1        0.2838
     15 N          -2.5964    0.2632    1.1786 N.pl3   1  LIG1       -0.3401
     16 C          -4.0905    0.4564    0.8122 C.3     1  LIG1        0.0711
     17 C          -4.7929   -0.9154    0.7676 C.3     1  LIG1        0.0807
     18 O          -4.1019   -1.8006   -0.1168 O.3     1  LIG1       -0.3726
     19 C          -2.7517   -2.0825    0.2586 C.3     1  LIG1        0.0807
     20 C          -1.9121   -0.7884    0.2705 C.3     1  LIG1        0.0711
     21 N          -1.0916    4.4149   -0.4191 N.3     1  LIG1       -0.2637
     22 H          -6.4074   -2.4717    4.8089 H       1  LIG1        0.0278
     23 H          -6.3641   -1.5502    6.3237 H       1  LIG1        0.0278
     24 H          -7.0731   -0.8571    4.8612 H       1  LIG1        0.0278
     25 H          -3.9828   -2.8232    4.5680 H       1  LIG1        0.0620
     26 H          -1.8067   -1.8847    3.9338 H       1  LIG1        0.0620
     27 H          -3.3750    2.0932    4.4492 H       1  LIG1        0.0620
     28 H          -5.5550    1.1468    5.0829 H       1  LIG1        0.0620
     29 H          -0.4173   -0.0469    3.4241 H       1  LIG1        0.0364
     30 H          -0.6384    1.1830    4.6172 H       1  LIG1        0.0364
     31 H           0.0744    3.2557    3.6210 H       1  LIG1        0.0785
     32 H           0.0043    4.7490    1.7787 H       1  LIG1        0.1514
     33 H          -2.5848   -0.1020    2.1247 H       1  LIG1        0.2498
     34 H          -4.5343    1.1197    1.5572 H       1  LIG1        0.0716
     35 H          -4.1245    0.9556   -0.1583 H       1  LIG1        0.0716
     36 H          -5.8184   -0.7913    0.4149 H       1  LIG1        0.0596
     37 H          -4.8764   -1.3489    1.7669 H       1  LIG1        0.0596
     38 H          -2.3262   -2.7894   -0.4561 H       1  LIG1        0.0596
     39 H          -2.7148   -2.5858    1.2279 H       1  LIG1        0.0596
     40 H          -1.8344   -0.3504   -0.7267 H       1  LIG1        0.0716
     41 H          -0.9035   -0.9588    0.6520 H       1  LIG1        0.0716
     42 H          -1.5755    4.1626   -1.2621 H       1  LIG1        0.1243
     43 H          -0.6160    5.2984   -0.3648 H       1  LIG1        0.1243
@<TRIPOS>BOND
     1    42    21    1
     2    40    20    1
     3    38    19    1
     4    21    43    1
     5    21    12    1
     6    35    16    1
     7    18    19    1
     8    18    17    1
     9    19    20    1
    10    19    39    1
    11    20    41    1
    12    20    15    1
    13    13    12    1
    14    13    14    2
    15    36    17    1
    16    12    11    1
    17    17    16    1
    18    17    37    1
    19    16    15    1
    20    16    34    1
    21    15    14    1
    22    15    33    1
    23    14     9    1
    24    11    32    1
    25    11    10    1
    26     9    10    2
    27     9     8    1
    28    10    31    1
    29    29     8    1
    30     8     5    1
    31     8    30    1
    32    26     4    1
    33     5     4   ar
    34     5     6   ar
    35     4     3   ar
    36    27     6    1
    37     6     7   ar
    38     3    25    1
    39     3     2   ar
    40    22     1    1
    41     7     2   ar
    42     7    28    1
    43    24     1    1
    44     2     1    1
    45     1    23    1
