@<TRIPOS>MOLECULE
SAMPL8-22_extra005
 27 28 0 0 0
SMALL
GASTEIGER

@<TRIPOS>ATOM
      1 C           3.8643    2.2660    0.0025 C.3     1  LIG1        0.0790
      2 O           3.5689    0.8691    0.0029 O.2     1  LIG1       -0.4914
      3 C           2.2500    0.4406    0.0019 C.2     1  LIG1        0.1618
      4 C           1.1519    1.3202    0.0014 C.2     1  LIG1       -0.0030
      5 C          -0.1620    0.8316    0.0001 C.2     1  LIG1        0.0765
      6 C          -0.3677   -0.5674   -0.0009 C.3     1  LIG1        0.1202
      7 C           0.7117   -1.4432   -0.0002 C.2     1  LIG1       -0.0081
      8 C           2.0262   -0.9499    0.0012 C.2     1  LIG1        0.1600
      9 O           3.1438   -1.7697    0.0019 O.2     1  LIG1       -0.4917
     10 C           2.9844   -3.1885    0.0009 C.3     1  LIG1        0.0789
     11 N          -1.6912   -1.0553   -0.0028 N.pl3   1  LIG1       -0.2826
     12 C          -2.7492   -0.1545   -0.0037 C.2     1  LIG1        0.3046
     13 N          -2.6283    1.1279   -0.0027 N.2     1  LIG1       -0.0129
     14 C          -1.3943    1.6574   -0.0006 C.2     1  LIG1        0.3184
     15 N          -1.3588    2.9610    0.0007 N.pl3   1  LIG1       -0.2463
     16 CL         -4.4019   -0.8593   -0.0066 Cl      1  LIG1       -0.0175
     17 H           3.4734    2.7630   -0.8867 H       1  LIG1        0.0660
     18 H           3.4727    2.7637    0.8911 H       1  LIG1        0.0660
     19 H           4.9451    2.4078    0.0029 H       1  LIG1        0.0660
     20 H           1.3165    2.3867    0.0020 H       1  LIG1        0.0661
     21 H           0.5155   -2.5032   -0.0008 H       1  LIG1        0.0635
     22 H           2.4557   -3.5384    0.8890 H       1  LIG1        0.0660
     23 H           3.9653   -3.6639    0.0013 H       1  LIG1        0.0660
     24 H           2.4570   -3.5374   -0.8883 H       1  LIG1        0.0660
     25 H          -1.8838   -2.0458   -0.0038 H       1  LIG1        0.1516
     26 H          -0.4935    3.4825    0.0023 H       1  LIG1        0.2884
     27 H          -2.2247    3.4826    0.0001 H       1  LIG1        0.2884
@<TRIPOS>BOND
     1    24    10    1
     2    17     1    1
     3    16    12    1
     4    25    11    1
     5    12    11    1
     6    12    13    2
     7    11     6    1
     8    13    14    1
     9     6     7    1
    10     6     5    1
    11    21     7    1
    12    14     5    2
    13    14    15    1
    14     7     8    2
    15    27    15    1
    16     5     4    1
    17    15    26    1
    18    10    23    1
    19    10     9    1
    20    10    22    1
    21     8     9    1
    22     8     3    1
    23     4     3    2
    24     4    20    1
    25     3     2    1
    26     1    19    1
    27     1     2    1
    28     1    18    1
