@<TRIPOS>MOLECULE
SAMPL8-12_extra006
 42 44 0 0 0
SMALL
GASTEIGER

@<TRIPOS>ATOM
      1 C         -12.1449   -5.5921   -2.1343 C.3     1  LIG1       -0.0397
      2 C         -10.7620   -4.9677   -2.1362 C.ar    1  LIG1       -0.0504
      3 C          -9.6322   -5.7815   -2.0426 C.ar    1  LIG1       -0.0586
      4 C          -8.3631   -5.2087   -2.0318 C.ar    1  LIG1       -0.0580
      5 C          -8.2216   -3.8212   -2.1153 C.ar    1  LIG1       -0.0427
      6 C          -9.3545   -3.0072   -2.1972 C.ar    1  LIG1       -0.0580
      7 C         -10.6235   -3.5807   -2.2081 C.ar    1  LIG1       -0.0586
      8 C          -6.8288   -3.1987   -2.0968 C.3     1  LIG1        0.0064
      9 C          -5.9467   -3.5912   -3.2906 C.2     1  LIG1        0.0590
     10 C          -6.3947   -3.2859   -4.6326 C.2     1  LIG1        0.0392
     11 N          -5.6617   -3.5949   -5.6420 N.2     1  LIG1       -0.2233
     12 C          -4.4867   -4.2023   -5.4309 C.3     1  LIG1        0.3268
     13 N          -4.0072   -4.5167   -4.2217 N.pl3   1  LIG1       -0.1941
     14 C          -4.7505   -4.2034   -3.1191 C.2     1  LIG1        0.2655
     15 N          -4.1697   -4.5614   -1.9176 N.pl3   1  LIG1       -0.2207
     16 C          -4.1160   -5.9795   -1.5071 C.3     1  LIG1        0.1037
     17 C          -3.9079   -6.1209    0.0198 C.3     1  LIG1        0.0837
     18 O          -2.7385   -5.4096    0.4298 O.3     1  LIG1       -0.3724
     19 C          -2.8607   -4.0152    0.1429 C.3     1  LIG1        0.0837
     20 C          -3.0307   -3.7900   -1.3790 C.3     1  LIG1        0.1037
     21 N          -3.7569   -4.5097   -6.4775 N.3     1  LIG1       -0.2651
     22 H         -12.1669   -6.4903   -1.5160 H       1  LIG1        0.0278
     23 H         -12.4473   -5.8623   -3.1463 H       1  LIG1        0.0278
     24 H         -12.8872   -4.9110   -1.7162 H       1  LIG1        0.0278
     25 H          -9.7337   -6.8567   -1.9787 H       1  LIG1        0.0620
     26 H          -7.4912   -5.8444   -1.9590 H       1  LIG1        0.0620
     27 H          -9.2598   -1.9310   -2.2534 H       1  LIG1        0.0620
     28 H         -11.4962   -2.9444   -2.2730 H       1  LIG1        0.0620
     29 H          -6.3605   -3.4661   -1.1473 H       1  LIG1        0.0364
     30 H          -6.9039   -2.1094   -2.0660 H       1  LIG1        0.0364
     31 H          -7.3492   -2.7957   -4.8163 H       1  LIG1        0.0832
     32 H          -3.1181   -4.9698   -4.1269 H       1  LIG1        0.2951
     33 H          -5.0710   -6.4544   -1.7431 H       1  LIG1        0.0749
     34 H          -3.3964   -6.5620   -2.0864 H       1  LIG1        0.0749
     35 H          -4.7919   -5.7746    0.5602 H       1  LIG1        0.0597
     36 H          -3.8047   -7.1751    0.2802 H       1  LIG1        0.0597
     37 H          -1.9716   -3.4903    0.4946 H       1  LIG1        0.0597
     38 H          -3.6946   -3.5707    0.6911 H       1  LIG1        0.0597
     39 H          -2.1056   -3.9557   -1.9352 H       1  LIG1        0.0749
     40 H          -3.2233   -2.7242   -1.5232 H       1  LIG1        0.0749
     41 H          -4.1211   -4.2717   -7.3845 H       1  LIG1        0.1243
     42 H          -2.8631   -4.9659   -6.4036 H       1  LIG1        0.1243
@<TRIPOS>BOND
     1    41    21    1
     2    21    42    1
     3    21    12    1
     4    11    12    1
     5    11    10    2
     6    12    13    1
     7    31    10    1
     8    10     9    1
     9    13    32    1
    10    13    14    1
    11     9    14    2
    12     9     8    1
    13    23     1    1
    14    14    15    1
    15    28     7    1
    16    27     6    1
    17     7     6   ar
    18     7     2   ar
    19     6     5   ar
    20     2     1    1
    21     2     3   ar
    22     1    24    1
    23     1    22    1
    24     5     8    1
    25     5     4   ar
    26     8    30    1
    27     8    29    1
    28    34    16    1
    29     3     4   ar
    30     3    25    1
    31     4    26    1
    32    39    20    1
    33    15    16    1
    34    15    20    1
    35    33    16    1
    36    40    20    1
    37    16    17    1
    38    20    19    1
    39    17    36    1
    40    17    18    1
    41    17    35    1
    42    19    18    1
    43    19    37    1
    44    19    38    1
