@<TRIPOS>MOLECULE
SAMPL8-14_extra002
 44 45 0 0 0
SMALL
GASTEIGER

@<TRIPOS>ATOM
      1 C           3.0766   -3.6549   -1.6985 C.3     1  LIG1       -0.0362
      2 C           2.3554   -2.6007   -0.8616 C.ar    1  LIG1       -0.0085
      3 C           1.2831   -3.0008   -0.0647 C.ar    1  LIG1       -0.0519
      4 C           0.5962   -2.0708    0.7110 C.ar    1  LIG1       -0.0424
      5 C           0.9958   -0.7341    0.6980 C.ar    1  LIG1       -0.0511
      6 C           2.0702   -0.2854   -0.0937 C.ar    1  LIG1       -0.0001
      7 C           2.7470   -1.2515   -0.8781 C.ar    1  LIG1        0.1234
      8 O           3.8064   -0.9160   -1.6810 O.3     1  LIG1       -0.5062
      9 C           2.4783    1.2228   -0.0903 C.3     1  LIG1       -0.0092
     10 C           1.5950    2.0981    0.8416 C.3     1  LIG1       -0.0559
     11 C           3.9314    1.3944    0.4154 C.3     1  LIG1       -0.0559
     12 C           2.3334    1.8302   -1.5071 C.3     1  LIG1       -0.0559
     13 C          -0.5646   -2.5106    1.5935 C.3     1  LIG1        0.0015
     14 C          -1.9232   -2.0574    1.0567 C.2     1  LIG1        0.0266
     15 C          -2.4898   -2.7298   -0.0369 C.2     1  LIG1        0.0597
     16 N          -3.6923   -2.3304   -0.4935 N.pl3   1  LIG1       -0.2129
     17 C          -4.3452   -1.3165    0.0812 C.cat   1  LIG1        0.3689
     18 N          -5.5821   -0.8974   -0.3800 N.pl3   1  LIG1       -0.2514
     19 N          -3.8770   -0.6241    1.1371 N.2     1  LIG1       -0.0836
     20 C          -2.6709   -1.0048    1.6145 C.3     1  LIG1        0.2557
     21 N          -2.2271   -0.2748    2.6957 N.3     1  LIG1       -0.2853
     22 H           4.1310   -3.7088   -1.4238 H       1  LIG1        0.0279
     23 H           2.6512   -4.6514   -1.5701 H       1  LIG1        0.0279
     24 H           3.0223   -3.4071   -2.7595 H       1  LIG1        0.0279
     25 H           0.9811   -4.0399   -0.0490 H       1  LIG1        0.0624
     26 H           0.4367   -0.0511    1.3183 H       1  LIG1        0.0624
     27 H           4.1366   -1.7015   -2.1339 H       1  LIG1        0.2922
     28 H           0.5449    2.0785    0.5457 H       1  LIG1        0.0238
     29 H           1.6572    1.7774    1.8826 H       1  LIG1        0.0238
     30 H           1.9011    3.1453    0.8229 H       1  LIG1        0.0238
     31 H           4.0638    0.9489    1.4023 H       1  LIG1        0.0238
     32 H           4.6661    0.9381   -0.2459 H       1  LIG1        0.0238
     33 H           4.2086    2.4464    0.4962 H       1  LIG1        0.0238
     34 H           1.3232    1.6950   -1.8958 H       1  LIG1        0.0238
     35 H           2.5397    2.9015   -1.5095 H       1  LIG1        0.0238
     36 H           3.0187    1.3888   -2.2287 H       1  LIG1        0.0238
     37 H          -0.5682   -3.5985    1.6945 H       1  LIG1        0.0361
     38 H          -0.3927   -2.1489    2.6084 H       1  LIG1        0.0361
     39 H          -2.0255   -3.5587   -0.5590 H       1  LIG1        0.0963
     40 H          -4.1150   -2.7967   -1.2799 H       1  LIG1        0.2506
     41 H          -6.0328   -1.3403   -1.1641 H       1  LIG1        0.2412
     42 H          -6.0373   -0.1290    0.0853 H       1  LIG1        0.2412
     43 H          -1.3452   -0.4864    3.1275 H       1  LIG1        0.1222
     44 H          -2.8203    0.4620    3.0387 H       1  LIG1        0.1222
@<TRIPOS>BOND
     1    24     1    1
     2    36    12    1
     3    27     8    1
     4    34    12    1
     5     1    23    1
     6     1    22    1
     7     1     2    1
     8     8     7    1
     9    35    12    1
    10    12     9    1
    11    40    16    1
    12    41    18    1
    13     7     2   ar
    14     7     6   ar
    15     2     3   ar
    16    39    15    1
    17    16    15    1
    18    16    17    1
    19    18    17    1
    20    18    42    1
    21    32    11    1
    22     6     9    1
    23     6     5   ar
    24     9    11    1
    25     9    10    1
    26     3    25    1
    27     3     4   ar
    28    15    14    2
    29    17    19    2
    30    11    33    1
    31    11    31    1
    32    28    10    1
    33     5     4   ar
    34     5    26    1
    35     4    13    1
    36    30    10    1
    37    10    29    1
    38    14    13    1
    39    14    20    1
    40    19    20    1
    41    13    37    1
    42    13    38    1
    43    20    21    1
    44    21    44    1
    45    21    43    1
