@<TRIPOS>MOLECULE
SAMPL8-14_extra010
 45 46 0 0 0
SMALL
GASTEIGER

@<TRIPOS>ATOM
      1 C          -1.6355   -3.6445    0.3775 C.3     1  LIG1       -0.0362
      2 C          -1.6935   -2.2728   -0.2913 C.ar    1  LIG1       -0.0085
      3 C          -0.8998   -2.0459   -1.4149 C.ar    1  LIG1       -0.0519
      4 C          -0.9236   -0.8103   -2.0558 C.ar    1  LIG1       -0.0420
      5 C          -1.7610    0.1986   -1.5758 C.ar    1  LIG1       -0.0511
      6 C          -2.5782    0.0129   -0.4445 C.ar    1  LIG1       -0.0001
      7 C          -2.5285   -1.2510    0.1930 C.ar    1  LIG1        0.1234
      8 O          -3.2863   -1.5300    1.3011 O.3     1  LIG1       -0.5062
      9 C          -3.4964    1.1691    0.0667 C.3     1  LIG1       -0.0092
     10 C          -3.3897    2.4640   -0.7856 C.3     1  LIG1       -0.0559
     11 C          -4.9852    0.7471    0.0159 C.3     1  LIG1       -0.0559
     12 C          -3.1093    1.5763    1.5095 C.3     1  LIG1       -0.0559
     13 C          -0.0672   -0.5680   -3.2965 C.3     1  LIG1        0.0063
     14 C           0.9479    0.5781   -3.1670 C.2     1  LIG1        0.0571
     15 C           0.9372    1.5697   -4.0926 C.2     1  LIG1        0.0056
     16 N           1.8594    2.5822   -3.9987 N.pl3   1  LIG1       -0.2873
     17 C           2.7485    2.5490   -2.9892 C.3     1  LIG1        0.3505
     18 N           3.6366    3.5167   -2.9103 N.3     1  LIG1       -0.2637
     19 N           2.7843    1.5842   -2.0495 N.2     1  LIG1       -0.0351
     20 C           1.9382    0.6253   -2.0976 C.2     1  LIG1        0.2800
     21 N           1.9404   -0.4152   -1.0683 N.pl3   1  LIG1       -0.3664
     22 H          -1.2975   -3.5576    1.4111 H       1  LIG1        0.0279
     23 H          -2.6219   -4.1103    0.3884 H       1  LIG1        0.0279
     24 H          -0.9581   -4.3292   -0.1352 H       1  LIG1        0.0279
     25 H          -0.2717   -2.8403   -1.7970 H       1  LIG1        0.0624
     26 H          -1.7548    1.1353   -2.1122 H       1  LIG1        0.0624
     27 H          -3.1276   -2.4369    1.5884 H       1  LIG1        0.2922
     28 H          -3.6845    2.2961   -1.8225 H       1  LIG1        0.0238
     29 H          -4.0396    3.2536   -0.4051 H       1  LIG1        0.0238
     30 H          -2.3776    2.8716   -0.7850 H       1  LIG1        0.0238
     31 H          -5.2169   -0.0717    0.6950 H       1  LIG1        0.0238
     32 H          -5.6470    1.5681    0.2954 H       1  LIG1        0.0238
     33 H          -5.2738    0.4272   -0.9863 H       1  LIG1        0.0238
     34 H          -3.6896    2.4326    1.8562 H       1  LIG1        0.0238
     35 H          -3.2809    0.7824    2.2345 H       1  LIG1        0.0238
     36 H          -2.0562    1.8527    1.5759 H       1  LIG1        0.0238
     37 H           0.4698   -1.4790   -3.5734 H       1  LIG1        0.0364
     38 H          -0.7476   -0.3921   -4.1338 H       1  LIG1        0.0364
     39 H           0.2577    1.6386   -4.9335 H       1  LIG1        0.0785
     40 H           1.8928    3.3351   -4.6651 H       1  LIG1        0.1514
     41 H           4.2934    3.4790   -2.1516 H       1  LIG1        0.1243
     42 H           3.6839    4.2747   -3.5682 H       1  LIG1        0.1243
     43 H           1.0774   -0.9267   -1.0985 H       1  LIG1        0.2454
     44 H           2.7072   -1.0432   -1.2018 H       1  LIG1        0.2454
     45 H           2.0351    0.0039   -0.1654 H       1  LIG1        0.2454
@<TRIPOS>BOND
     1    39    15    1
     2    40    16    1
     3    38    13    1
     4    15    16    1
     5    15    14    2
     6    16    17    1
     7    37    13    1
     8    42    18    1
     9    13    14    1
    10    13     4    1
    11    14    20    1
    12    17    18    1
    13    17    19    1
    14    18    41    1
    15    26     5    1
    16    20    19    2
    17    20    21    1
    18     4     5   ar
    19     4     3   ar
    20    28    10    1
    21    25     3    1
    22     5     6   ar
    23     3     2   ar
    24    44    21    1
    25    43    21    1
    26    21    45    1
    27    33    11    1
    28    10    30    1
    29    10    29    1
    30    10     9    1
    31     6     9    1
    32     6     7   ar
    33     2     7   ar
    34     2     1    1
    35    24     1    1
    36    11     9    1
    37    11    32    1
    38    11    31    1
    39     9    12    1
    40     7     8    1
    41     1    23    1
    42     1    22    1
    43     8    27    1
    44    12    36    1
    45    12    34    1
    46    12    35    1
