# Created by COSMOvis on Mon Aug 09 22:24:22 CEST 2021
#
#

#
#

@<TRIPOS>MOLECULE
SAMPL8-20_extra002_c0
26 28
SMALL
USER_CHARGES

@<TRIPOS>ATOM
1 C -4.680400 0.196300 0.031900 C 0 XO 0.000000
2 C -3.928400 1.069500 -0.763500 C 1 XO 0.000000
3 C -4.027800 -0.768200 0.809200 C 2 XO 0.000000
4 C -2.533900 0.976700 -0.781900 C 3 XO 0.000000
5 C -2.633700 -0.870400 0.781700 C 4 XO 0.000000
6 C 1.767400 -1.236600 -0.234200 C 5 XO 0.000000
7 C 2.401100 -0.008800 0.013900 C 6 XO 0.000000
8 C -1.870300 0.000600 -0.016400 C 7 XO 0.000000
9 C 0.381200 -1.227400 -0.250400 C 8 XO 0.000000
10 C -0.379800 -0.033600 -0.019700 C 9 XO 0.000000
11 C 1.578400 1.157600 0.206000 C 10 XO 0.000000
12 C 3.686500 0.543000 0.131100 C 11 XO 0.000000
13 N 0.228200 1.142200 0.189700 N 12 XO 0.000000
14 N 3.643800 1.862100 0.361700 N 13 XO 0.000000
15 N 2.341800 2.270300 0.413700 N 14 XO 0.000000
16 N 4.993900 -0.102200 0.036300 N 15 XO 0.000000
17 Cl -0.433700 -2.755100 -0.655300 Cl 16 XO 0.000000
18 H -5.769300 0.270100 0.049800 H 17 XO 0.000000
19 H -4.429200 1.825100 -1.371800 H 18 XO 0.000000
20 H -4.605900 -1.442600 1.443800 H 19 XO 0.000000
21 H -1.946600 1.661800 -1.395400 H 20 XO 0.000000
22 H -2.136200 -1.618100 1.400500 H 21 XO 0.000000
23 H 2.319000 -2.157800 -0.425100 H 22 XO 0.000000
24 H 5.164500 -0.537800 -0.882300 H 23 XO 0.000000
25 H 5.728300 0.610100 0.172400 H 24 XO 0.000000
26 H 5.141300 -0.826700 0.754500 H 25 XO 0.000000

@<TRIPOS>BOND
1 1 2 ar
2 1 3 ar
3 2 4 ar
4 3 5 ar
5 4 8 ar
6 5 8 ar
7 6 7 ar
8 6 9 ar
9 7 11 ar
10 7 12 ar
11 8 10 1
12 9 10 ar
13 9 17 1
14 10 13 ar
15 11 13 ar
16 11 15 ar
17 12 14 ar
18 12 16 2
19 14 15 ar
20 1 18 1
21 2 19 1
22 3 20 1
23 4 21 1
24 5 22 1
25 6 23 1
26 16 24 1
27 16 25 1
28 16 26 1

@<COSMOlogic>TOTAL_CHARGE
0.0
