# Created by COSMOvis on Mon Aug 09 22:24:22 CEST 2021
#
#

#
#

@<TRIPOS>MOLECULE
SAMPL8-19_micro017_c0
48 51
SMALL
USER_CHARGES

@<TRIPOS>ATOM
1 C 3.038700 -0.267500 0.595400 C 0 XO 0.000000
2 N 1.777600 -0.941100 0.280300 N 1 XO 0.000000
3 C 0.517700 -0.507900 0.700800 C 2 XO 0.000000
4 C 0.122400 0.604600 1.449000 C 3 XO 0.000000
5 C -1.245600 0.739300 1.681800 C 4 XO 0.000000
6 C -2.182700 -0.196400 1.187800 C 5 XO 0.000000
7 C -1.790000 -1.306100 0.441800 C 6 XO 0.000000
8 C -0.418800 -1.443400 0.211500 C 7 XO 0.000000
9 N 0.320300 -2.400100 -0.468500 N 8 XO 1.000000
10 C 1.630300 -2.087100 -0.419900 C 9 XO 0.000000
11 C 2.701700 -2.901500 -1.033700 C 10 XO 0.000000
12 S 3.577900 -3.931600 0.246100 S 11 XO 0.000000
13 C 5.260100 -3.494600 -0.079000 C 12 XO 0.000000
14 N 6.194800 -4.153900 0.657000 N 13 XO 1.000000
15 C 7.522300 -3.898900 0.492100 C 14 XO 0.000000
16 C 7.950200 -2.969000 -0.425400 C 15 XO 0.000000
17 C 6.910000 -2.333100 -1.164500 C 16 XO 0.000000
18 N 5.607300 -2.592100 -0.977000 N 17 XO 0.000000
19 O 7.251300 -1.445900 -2.085400 O 18 XO 0.000000
20 C 9.409300 -2.659900 -0.649800 C 19 XO 0.000000
21 C 9.816100 -1.275000 -0.184200 C 20 XO 0.000000
22 C 10.325900 -0.317600 -1.062500 C 21 XO 0.000000
23 N 10.718100 0.907200 -0.668700 N 22 XO 0.000000
24 C 10.590200 1.166700 0.638500 C 23 XO 0.000000
25 N 10.118800 0.334400 1.587200 N 24 XO 0.000000
26 C 9.738400 -0.874800 1.158700 C 25 XO 0.000000
27 O 10.958000 2.372500 1.116400 O 26 XO 0.000000
28 C 11.479400 3.338600 0.167600 C 27 XO 0.000000
29 H 3.826300 -0.631600 -0.071100 H 28 XO 0.000000
30 H 3.313600 -0.459900 1.639500 H 29 XO 0.000000
31 H 2.913300 0.808500 0.433600 H 30 XO 0.000000
32 H 0.840300 1.327600 1.834100 H 31 XO 0.000000
33 H -1.602200 1.590400 2.262500 H 32 XO 0.000000
34 H -3.242100 -0.046000 1.397100 H 33 XO 0.000000
35 H -2.509100 -2.029700 0.059600 H 34 XO 0.000000
36 H -0.055700 -3.210300 -0.959200 H 35 XO 0.000000
37 H 2.279600 -3.588000 -1.774300 H 36 XO 0.000000
38 H 3.470800 -2.282700 -1.516100 H 37 XO 0.000000
39 H 5.910800 -4.857700 1.343000 H 38 XO 0.000000
40 H 8.195700 -4.480500 1.118500 H 39 XO 0.000000
41 H 6.444700 -1.096500 -2.525300 H 40 XO 0.000000
42 H 9.633100 -2.755400 -1.722700 H 41 XO 0.000000
43 H 10.009300 -3.421600 -0.131500 H 42 XO 0.000000
44 H 10.430400 -0.537000 -2.129200 H 43 XO 0.000000
45 H 9.357300 -1.554500 1.927000 H 44 XO 0.000000
46 H 10.730000 3.569800 -0.599900 H 45 XO 0.000000
47 H 12.392200 2.958200 -0.308600 H 46 XO 0.000000
48 H 11.701500 4.226700 0.767100 H 47 XO 0.000000

@<TRIPOS>BOND
1 1 2 1
2 2 3 1
3 2 10 1
4 3 4 ar
5 3 8 ar
6 4 5 ar
7 5 6 ar
8 6 7 ar
9 7 8 ar
10 8 9 1
11 9 10 2
12 10 11 1
13 11 12 1
14 12 13 1
15 13 14 2
16 13 18 1
17 14 15 1
18 15 16 2
19 16 17 1
20 16 20 1
21 17 18 2
22 17 19 1
23 20 21 1
24 21 22 ar
25 21 26 ar
26 22 23 ar
27 23 24 ar
28 24 25 ar
29 24 27 1
30 25 26 ar
31 27 28 1
32 1 29 1
33 1 30 1
34 1 31 1
35 4 32 1
36 5 33 1
37 6 34 1
38 7 35 1
39 9 36 1
40 11 37 1
41 11 38 1
42 14 39 1
43 15 40 1
44 19 41 1
45 20 42 1
46 20 43 1
47 22 44 1
48 26 45 1
49 28 46 1
50 28 47 1
51 28 48 1

@<COSMOlogic>TOTAL_CHARGE
2.0
