# Created by COSMOvis on Mon Aug 09 22:24:22 CEST 2021
#
#

#
#

@<TRIPOS>MOLECULE
SAMPL8-21_micro023_c0
40 41
SMALL
USER_CHARGES

@<TRIPOS>ATOM
1 C 1.370800 1.352000 2.903800 C 0 XO 0.000000
2 O 0.480500 0.339800 2.398900 O 1 XO 0.000000
3 C 0.364800 0.206800 1.032600 C 2 XO 0.000000
4 C 1.032000 0.978800 0.075900 C 3 XO 0.000000
5 C 0.815700 0.734800 -1.288100 C 4 XO 0.000000
6 C -0.067200 -0.282600 -1.678800 C 5 XO 0.000000
7 C -0.742900 -1.055800 -0.720000 C 6 XO 0.000000
8 C -0.522300 -0.815400 0.646900 C 7 XO 0.000000
9 O -1.185400 -1.567600 1.588700 O 8 XO 0.000000
10 O -1.634200 -2.060900 -1.006400 O 9 XO 0.000000
11 C -1.901700 -2.332400 -2.394600 C 10 XO 0.000000
12 C 1.571300 1.532200 -2.348500 C 11 XO 0.000000
13 C 1.700100 3.007700 -2.067900 C 12 XO 0.000000
14 C 0.526600 3.841300 -2.128100 C 13 XO 0.000000
15 N -0.712900 3.516000 -2.387200 N 14 XO 0.000000
16 N 0.766500 5.208000 -1.873200 N 15 XO 0.000000
17 C 1.996300 5.715000 -1.585900 C 16 XO 0.000000
18 N 3.083100 4.955100 -1.536900 N 17 XO 0.000000
19 C 2.909800 3.628700 -1.777300 C 18 XO 0.000000
20 O 4.024000 2.848400 -1.731900 O 19 XO 0.000000
21 C 5.290900 3.481600 -1.431700 C 20 XO 0.000000
22 N 2.089400 7.039100 -1.297100 N 21 XO 0.000000
23 H 2.403900 1.166700 2.573000 H 22 XO 0.000000
24 H 1.314000 1.277900 3.994500 H 23 XO 0.000000
25 H 1.048300 2.354200 2.583500 H 24 XO 0.000000
26 H 1.707900 1.777900 0.379300 H 25 XO 0.000000
27 H -0.233900 -0.465100 -2.740500 H 26 XO 0.000000
28 H -0.898700 -1.239300 2.466400 H 27 XO 0.000000
29 H -0.988200 -2.646700 -2.922500 H 28 XO 0.000000
30 H -2.336300 -1.453500 -2.895500 H 29 XO 0.000000
31 H -2.627300 -3.152500 -2.397800 H 30 XO 0.000000
32 H 1.063300 1.383100 -3.317500 H 31 XO 0.000000
33 H 2.579900 1.109400 -2.466300 H 32 XO 0.000000
34 H -0.774700 2.501900 -2.527100 H 33 XO 0.000000
35 H -0.049600 5.819900 -1.899700 H 34 XO 0.000000
36 H 6.021400 2.666000 -1.454700 H 35 XO 0.000000
37 H 5.272800 3.946800 -0.437600 H 36 XO 0.000000
38 H 5.541900 4.237800 -2.186600 H 37 XO 0.000000
39 H 3.024100 7.436200 -1.278100 H 38 XO 0.000000
40 H 1.339200 7.670800 -1.561600 H 39 XO 0.000000

@<TRIPOS>BOND
1 1 2 1
2 2 3 1
3 3 4 ar
4 3 8 ar
5 4 5 ar
6 5 6 ar
7 5 12 1
8 6 7 ar
9 7 8 ar
10 7 10 1
11 8 9 1
12 10 11 1
13 12 13 1
14 13 14 1
15 13 19 2
16 14 15 2
17 14 16 1
18 16 17 1
19 17 18 2
20 17 22 1
21 18 19 1
22 19 20 1
23 20 21 1
24 1 23 1
25 1 24 1
26 1 25 1
27 4 26 1
28 6 27 1
29 9 28 1
30 11 29 1
31 11 30 1
32 11 31 1
33 12 32 1
34 12 33 1
35 15 34 1
36 16 35 1
37 21 36 1
38 21 37 1
39 21 38 1
40 22 39 1
41 22 40 1

@<COSMOlogic>TOTAL_CHARGE
0.0
