# Created by COSMOvis on Mon Aug 09 22:24:23 CEST 2021
#
#

#
#

@<TRIPOS>MOLECULE
SAMPL8-23_micro000_c0
18 19
SMALL
USER_CHARGES

@<TRIPOS>ATOM
1 C -2.412000 -0.671400 0.212000 C 0 XO 0.000000
2 C -1.305400 -1.498900 0.461700 C 1 XO 0.000000
3 C -0.925600 1.187500 -0.358500 C 2 XO 0.000000
4 C 0.168100 0.354700 -0.107100 C 3 XO 0.000000
5 C -2.215200 0.657800 -0.193800 C 4 XO 0.000000
6 C -0.024500 -0.983400 0.301300 C 5 XO 0.000000
7 C 2.439300 -0.295200 0.082500 C 6 XO 0.000000
8 C 3.785300 -0.180600 0.040900 C 7 XO 0.000000
9 N 1.505000 0.693800 -0.213400 N 8 XO 0.000000
10 O -3.267300 1.507600 -0.451100 O 9 XO 0.000000
11 S 1.548700 -1.795600 0.543800 S 10 XO 0.000000
12 H 4.427200 -1.021300 0.293300 H 11 XO 0.000000
13 H 4.249000 0.762300 -0.248800 H 12 XO 0.000000
14 H -3.424100 -1.062400 0.333700 H 13 XO 0.000000
15 H -1.459400 -2.531700 0.776700 H 14 XO 0.000000
16 H -0.791700 2.222600 -0.674400 H 15 XO 0.000000
17 H -4.106500 1.032600 -0.301200 H 16 XO 0.000000
18 H 1.809300 1.621600 -0.497600 H 17 XO 0.000000

@<TRIPOS>BOND
1 1 2 ar
2 1 5 ar
3 2 6 ar
4 3 4 ar
5 3 5 ar
6 4 6 ar
7 4 9 1
8 5 10 1
9 6 11 1
10 7 8 2
11 7 9 1
12 7 11 1
13 1 14 1
14 2 15 1
15 3 16 1
16 8 12 1
17 8 13 1
18 9 18 1
19 10 17 1

@<COSMOlogic>TOTAL_CHARGE
0.0
