# Created by COSMOvis on Mon Aug 09 22:24:22 CEST 2021
#
#

#
#

@<TRIPOS>MOLECULE
SAMPL8-21_micro012_c0
38 39
SMALL
USER_CHARGES

@<TRIPOS>ATOM
1 C -1.870100 0.662600 -3.067500 C 0 XO 0.000000
2 O -2.555100 -0.358800 -2.321400 O 1 XO 0.000000
3 C -2.039700 -0.690000 -1.088600 C 2 XO 0.000000
4 C -0.885100 -0.127700 -0.523300 C 3 XO 0.000000
5 C -0.436200 -0.528000 0.742900 C 4 XO 0.000000
6 C -1.151300 -1.507700 1.450600 C 5 XO 0.000000
7 C -2.298800 -2.077900 0.884800 C 6 XO 0.000000
8 C -2.756100 -1.672300 -0.381700 C 7 XO 0.000000
9 O -3.882800 -2.235500 -0.941500 O 8 XO 0.000000
10 O -3.081600 -3.057800 1.461100 O 9 XO 0.000000
11 C -2.681900 -3.564700 2.747400 C 10 XO 0.000000
12 C 0.787800 0.138300 1.375200 C 11 XO 0.000000
13 C 1.887000 0.545200 0.429600 C 12 XO 0.000000
14 C 2.780600 -0.435300 -0.161500 C 13 XO 0.000000
15 N 2.685700 -1.756700 0.065700 N 14 XO -1.000000
16 N 3.794100 -0.014500 -0.992300 N 15 XO 0.000000
17 C 3.937300 1.315700 -1.271800 C 16 XO 0.000000
18 N 3.093000 2.297700 -0.747400 N 17 XO 0.000000
19 C 2.126600 1.870300 0.065500 C 18 XO 0.000000
20 O 1.278800 2.830700 0.607400 O 19 XO 0.000000
21 C 1.520500 4.200200 0.241900 C 20 XO 0.000000
22 N 4.937400 1.691500 -2.089000 N 21 XO -1.000000
23 H -2.442700 0.784000 -3.993100 H 22 XO 0.000000
24 H -1.854600 1.615600 -2.516000 H 23 XO 0.000000
25 H -0.840100 0.358100 -3.309400 H 24 XO 0.000000
26 H -0.302500 0.617100 -1.064700 H 25 XO 0.000000
27 H -0.802900 -1.827000 2.433600 H 26 XO 0.000000
28 H -4.217500 -2.894500 -0.298200 H 27 XO 0.000000
29 H -3.421900 -4.328300 3.007500 H 28 XO 0.000000
30 H -2.690700 -2.766600 3.505300 H 29 XO 0.000000
31 H -1.680800 -4.019500 2.696900 H 30 XO 0.000000
32 H 0.442100 1.031100 1.921600 H 31 XO 0.000000
33 H 1.179000 -0.552300 2.146300 H 32 XO 0.000000
34 H 1.871600 -1.921300 0.669900 H 33 XO 0.000000
35 H 1.421900 4.352300 -0.842700 H 34 XO 0.000000
36 H 2.521800 4.532200 0.552700 H 35 XO 0.000000
37 H 0.753300 4.778400 0.771900 H 36 XO 0.000000
38 H 4.873800 2.715300 -2.167900 H 37 XO 0.000000

@<TRIPOS>BOND
1 1 2 1
2 2 3 1
3 3 4 ar
4 3 8 ar
5 4 5 ar
6 5 6 ar
7 5 12 1
8 6 7 ar
9 7 8 ar
10 7 10 1
11 8 9 1
12 10 11 1
13 12 13 1
14 13 14 ar
15 13 19 ar
16 14 15 1
17 14 16 ar
18 16 17 ar
19 17 18 ar
20 17 22 1
21 18 19 ar
22 19 20 1
23 20 21 1
24 1 23 1
25 1 24 1
26 1 25 1
27 4 26 1
28 6 27 1
29 9 28 1
30 11 29 1
31 11 30 1
32 11 31 1
33 12 32 1
34 12 33 1
35 15 34 1
36 21 35 1
37 21 36 1
38 21 37 1
39 22 38 1

@<COSMOlogic>TOTAL_CHARGE
-2.0
