# Created by COSMOvis on Mon Aug 09 22:24:20 CEST 2021
#
#

#
#

@<TRIPOS>MOLECULE
SAMPL8-14_extra008_c0
43 44
SMALL
USER_CHARGES

@<TRIPOS>ATOM
1 C -2.158700 -3.085800 2.921600 C 0 XO 0.000000
2 C -3.323600 -1.689800 1.347800 C 1 XO 0.000000
3 C -5.454300 -4.423200 -0.475000 C 2 XO 0.000000
4 C -3.190800 -2.940500 1.978900 C 3 XO 0.000000
5 C -1.293700 -2.034500 3.235300 C 4 XO 0.000000
6 C -2.492600 -0.596800 1.617700 C 5 XO 0.000000
7 C -4.247900 -4.436300 0.201900 C 6 XO 0.000000
8 C -1.423100 -0.742900 2.596700 C 7 XO 0.000000
9 C -3.103700 -4.823700 -0.571400 C 8 XO 0.000000
10 C -4.462400 -5.122900 -2.356700 C 9 XO 0.000000
11 C -0.195900 -2.206700 4.252700 C 10 XO 0.000000
12 C -2.977800 1.861000 1.929000 C 11 XO 0.000000
13 C -3.857300 0.726600 -0.110100 C 12 XO 0.000000
14 C -1.401900 1.102100 0.104800 C 13 XO 0.000000
15 C -4.141700 -4.088300 1.667100 C 14 XO 0.000000
16 C -2.687600 0.748200 0.891900 C 15 XO 0.000000
17 N -5.596900 -4.768400 -1.787800 N 16 XO 0.000000
18 N -3.233500 -5.180800 -1.876900 N 17 XO 0.000000
19 N -1.870600 -4.885300 -0.029800 N 18 XO 0.000000
20 N -4.582800 -5.523100 -3.781400 N 19 XO 1.000000
21 O -0.605500 0.215500 2.907400 O 20 XO -1.000000
22 H -2.034300 -4.047300 3.435700 H 21 XO 0.000000
23 H -4.122000 -1.577800 0.610100 H 22 XO 0.000000
24 H -6.371500 -4.132100 0.042600 H 23 XO 0.000000
25 H -0.191400 -3.225200 4.667700 H 24 XO 0.000000
26 H 0.796000 -2.004500 3.814100 H 25 XO 0.000000
27 H -0.302400 -1.491700 5.086200 H 26 XO 0.000000
28 H -3.067800 2.839500 1.429000 H 27 XO 0.000000
29 H -3.924400 1.660300 2.456000 H 28 XO 0.000000
30 H -2.164900 1.907200 2.665600 H 29 XO 0.000000
31 H -3.941000 1.713900 -0.590500 H 30 XO 0.000000
32 H -3.705200 -0.018600 -0.906000 H 31 XO 0.000000
33 H -4.819400 0.513200 0.381100 H 32 XO 0.000000
34 H -0.541400 1.125700 0.786300 H 33 XO 0.000000
35 H -1.212700 0.354000 -0.681100 H 34 XO 0.000000
36 H -1.505600 2.087200 -0.380100 H 35 XO 0.000000
37 H -3.801300 -4.984500 2.216000 H 36 XO 0.000000
38 H -5.159700 -3.876000 2.035300 H 37 XO 0.000000
39 H -1.077800 -5.058600 -0.642700 H 38 XO 0.000000
40 H -1.694900 -4.386100 0.843500 H 39 XO 0.000000
41 H -5.564300 -5.448700 -4.083700 H 40 XO 0.000000
42 H -4.272700 -6.494900 -3.928200 H 41 XO 0.000000
43 H -4.010000 -4.923200 -4.392900 H 42 XO 0.000000

@<TRIPOS>BOND
1 1 4 ar
2 1 5 ar
3 2 4 ar
4 2 6 ar
5 3 7 ar
6 3 17 ar
7 4 15 1
8 5 8 ar
9 5 11 1
10 6 8 ar
11 6 16 1
12 7 9 ar
13 7 15 1
14 8 21 1
15 9 18 ar
16 9 19 1
17 10 17 ar
18 10 18 ar
19 10 20 1
20 12 16 1
21 13 16 1
22 14 16 1
23 1 22 1
24 2 23 1
25 3 24 1
26 11 25 1
27 11 26 1
28 11 27 1
29 12 28 1
30 12 29 1
31 12 30 1
32 13 31 1
33 13 32 1
34 13 33 1
35 14 34 1
36 14 35 1
37 14 36 1
38 15 37 1
39 15 38 1
40 19 39 1
41 19 40 1
42 20 41 1
43 20 42 1
44 20 43 1

@<COSMOlogic>TOTAL_CHARGE
0.0
