# Created by COSMOvis on Mon Aug 09 22:24:22 CEST 2021
#
#

#
#

@<TRIPOS>MOLECULE
SAMPL8-21_extra008_c0
40 41
SMALL
USER_CHARGES

@<TRIPOS>ATOM
1 C 1.627200 1.811500 -0.079400 C 0 XO 0.000000
2 C 1.351400 -0.523700 0.509900 C 1 XO 0.000000
3 C 0.816700 0.779500 0.439200 C 2 XO 0.000000
4 C -1.697100 0.288600 0.301100 C 3 XO 0.000000
5 C 2.931700 1.548200 -0.516900 C 4 XO 0.000000
6 C 2.651600 -0.786100 0.072000 C 5 XO 0.000000
7 C 3.522700 0.234200 -0.468000 C 6 XO 0.000000
8 C -1.809400 0.043200 -1.057900 C 7 XO 0.000000
9 C -2.784400 -0.285800 1.026500 C 8 XO 0.000000
10 C -3.709500 -1.164500 -0.874800 C 9 XO 0.000000
11 C 3.259800 3.850600 -1.137800 C 10 XO 0.000000
12 C 2.444300 -3.117300 0.632200 C 11 XO 0.000000
13 C -3.874300 -0.676400 3.123400 C 12 XO 0.000000
14 C -0.580800 1.075000 0.966200 C 13 XO 0.000000
15 N -2.752200 -0.655000 -1.684700 N 14 XO 0.000000
16 N -3.760600 -0.993300 0.469100 N 15 XO 0.000000
17 N -0.786500 0.600400 -1.969000 N 16 XO 1.000000
18 N -4.675400 -1.924200 -1.444300 N 17 XO 0.000000
19 O 4.721900 -0.012900 -0.872700 O 18 XO -1.000000
20 O 3.774000 2.516800 -1.039200 O 19 XO 0.000000
21 O 3.234600 -2.041100 0.111600 O 20 XO 0.000000
22 O -2.793900 -0.081000 2.355300 O 21 XO 0.000000
23 H 1.226000 2.826100 -0.120200 H 22 XO 0.000000
24 H 0.733300 -1.327300 0.913800 H 23 XO 0.000000
25 H 2.994400 4.258000 -0.148100 H 24 XO 0.000000
26 H 2.376000 3.896500 -1.795800 H 25 XO 0.000000
27 H 4.067000 4.451300 -1.572600 H 26 XO 0.000000
28 H 3.080200 -4.008400 0.578800 H 27 XO 0.000000
29 H 1.535400 -3.280200 0.029800 H 28 XO 0.000000
30 H 2.155100 -2.937200 1.680900 H 29 XO 0.000000
31 H -3.669800 -0.388200 4.158700 H 30 XO 0.000000
32 H -3.865000 -1.768100 3.015900 H 31 XO 0.000000
33 H -4.842300 -0.278700 2.794400 H 32 XO 0.000000
34 H -0.632700 0.866900 2.045200 H 33 XO 0.000000
35 H -0.783700 2.154300 0.862300 H 34 XO 0.000000
36 H -0.617700 -0.041600 -2.756100 H 35 XO 0.000000
37 H 0.107800 0.767200 -1.433300 H 36 XO 0.000000
38 H -4.755300 -1.947200 -2.455500 H 37 XO 0.000000
39 H -5.484400 -2.188800 -0.892200 H 38 XO 0.000000
40 H -1.094900 1.495600 -2.375400 H 39 XO 0.000000

@<TRIPOS>BOND
1 1 3 ar
2 1 5 ar
3 2 3 ar
4 2 6 ar
5 3 14 1
6 4 8 ar
7 4 9 ar
8 4 14 1
9 5 7 ar
10 5 20 1
11 6 7 ar
12 6 21 1
13 7 19 1
14 8 15 ar
15 8 17 1
16 9 16 ar
17 9 22 1
18 10 15 ar
19 10 16 ar
20 10 18 1
21 11 20 1
22 12 21 1
23 13 22 1
24 1 23 1
25 2 24 1
26 11 25 1
27 11 26 1
28 11 27 1
29 12 28 1
30 12 29 1
31 12 30 1
32 13 31 1
33 13 32 1
34 13 33 1
35 14 34 1
36 14 35 1
37 17 36 1
38 17 37 1
39 17 40 1
40 18 38 1
41 18 39 1

@<COSMOlogic>TOTAL_CHARGE
0.0
