# Created by COSMOvis on Mon Aug 09 22:24:20 CEST 2021
#
#

#
#

@<TRIPOS>MOLECULE
SAMPL8-12_extra009_c0
42 44
SMALL
USER_CHARGES

@<TRIPOS>ATOM
1 C -1.867800 0.779000 -8.221700 C 0 XO 0.000000
2 C -2.306300 0.010400 -6.999100 C 1 XO 0.000000
3 C -3.089300 0.612500 -6.001900 C 2 XO 0.000000
4 C -3.470700 -0.094500 -4.855300 C 3 XO 0.000000
5 C -3.083400 -1.429000 -4.671100 C 4 XO 0.000000
6 C -2.299400 -2.036200 -5.666900 C 5 XO 0.000000
7 C -1.919600 -1.329100 -6.809300 C 6 XO 0.000000
8 C -3.489700 -2.197800 -3.427900 C 7 XO 0.000000
9 C -4.596100 -3.217200 -3.657400 C 8 XO 0.000000
10 C -5.482800 -3.084600 -4.726800 C 9 XO 0.000000
11 N -6.406900 -3.979900 -5.123900 N 10 XO 0.000000
12 C -6.466900 -5.116500 -4.425700 C 11 XO 0.000000
13 N -5.661900 -5.320200 -3.331500 N 12 XO 0.000000
14 C -4.722200 -4.407600 -2.897200 C 13 XO 0.000000
15 N -3.974900 -4.760300 -1.819400 N 14 XO 0.000000
16 C -3.674500 -3.808700 -0.724400 C 15 XO 0.000000
17 C -2.333400 -4.144800 -0.086300 C 16 XO 0.000000
18 O -2.311800 -5.500800 0.389800 O 17 XO 0.000000
19 C -2.544900 -6.403200 -0.699600 C 18 XO 0.000000
20 C -3.901500 -6.163800 -1.365400 C 19 XO 0.000000
21 N -7.319600 -6.086600 -4.776000 N 20 XO 1.000000
22 H -2.514700 1.648400 -8.401400 H 21 XO 0.000000
23 H -1.880100 0.145000 -9.119800 H 22 XO 0.000000
24 H -0.837500 1.152200 -8.102900 H 23 XO 0.000000
25 H -3.407300 1.651200 -6.121600 H 24 XO 0.000000
26 H -4.078200 0.401400 -4.093900 H 25 XO 0.000000
27 H -1.981400 -3.075100 -5.546500 H 26 XO 0.000000
28 H -1.308600 -1.824700 -7.568100 H 27 XO 0.000000
29 H -3.789500 -1.475400 -2.651800 H 28 XO 0.000000
30 H -2.608200 -2.730800 -3.038100 H 29 XO 0.000000
31 H -5.418000 -2.186900 -5.345300 H 30 XO 0.000000
32 H -5.817300 -6.158100 -2.769800 H 31 XO 0.000000
33 H -3.676100 -2.780300 -1.091600 H 32 XO 0.000000
34 H -4.477500 -3.900500 0.027500 H 33 XO 0.000000
35 H -1.512900 -3.989300 -0.810900 H 34 XO 0.000000
36 H -2.168500 -3.500200 0.785900 H 35 XO 0.000000
37 H -2.519100 -7.418600 -0.285100 H 36 XO 0.000000
38 H -1.741600 -6.299200 -1.451800 H 37 XO 0.000000
39 H -4.717600 -6.383300 -0.655700 H 38 XO 0.000000
40 H -3.975700 -6.839400 -2.227600 H 39 XO 0.000000
41 H -7.947000 -5.922600 -5.557000 H 40 XO 0.000000
42 H -7.413800 -6.950700 -4.252200 H 41 XO 0.000000

@<TRIPOS>BOND
1 1 2 1
2 2 3 ar
3 2 7 ar
4 3 4 ar
5 4 5 ar
6 5 6 ar
7 5 8 1
8 6 7 ar
9 8 9 1
10 9 10 1
11 9 14 2
12 10 11 2
13 11 12 1
14 12 13 1
15 12 21 2
16 13 14 1
17 14 15 1
18 15 16 1
19 15 20 1
20 16 17 1
21 17 18 1
22 18 19 1
23 19 20 1
24 1 22 1
25 1 23 1
26 1 24 1
27 3 25 1
28 4 26 1
29 6 27 1
30 7 28 1
31 8 29 1
32 8 30 1
33 10 31 1
34 13 32 1
35 16 33 1
36 16 34 1
37 17 35 1
38 17 36 1
39 19 37 1
40 19 38 1
41 20 39 1
42 20 40 1
43 21 41 1
44 21 42 1

@<COSMOlogic>TOTAL_CHARGE
1.0
