# Created by COSMOvis on Mon Aug 09 22:24:21 CEST 2021
#
#

#
#

@<TRIPOS>MOLECULE
SAMPL8-16_micro011_c0
35 36
SMALL
USER_CHARGES

@<TRIPOS>ATOM
1 C 3.425400 2.304700 -0.642900 C 0 XO 0.000000
2 C 3.195500 0.926100 -1.264500 C 1 XO 0.000000
3 C 4.529600 0.242900 -1.572400 C 2 XO 0.000000
4 C 2.315000 0.982600 -2.514300 C 3 XO 0.000000
5 O 2.596300 -0.004400 -0.257900 O 4 XO 0.000000
6 C 1.434500 0.247600 0.389100 C 5 XO 0.000000
7 N 0.630500 1.199700 0.064600 N 6 XO 0.000000
8 C -0.501100 1.510100 0.951600 C 7 XO 0.000000
9 C -1.535500 0.427400 1.059800 C 8 XO 0.000000
10 N -2.840900 0.549700 0.677100 N 9 XO 0.000000
11 C -3.472800 -0.663100 0.915300 C 10 XO 0.000000
12 C -4.786600 -1.100000 0.720200 C 11 XO 0.000000
13 C -5.066900 -2.420700 1.079200 C 12 XO 0.000000
14 C -4.072200 -3.270400 1.613100 C 13 XO 0.000000
15 C -2.761800 -2.829700 1.807200 C 14 XO 0.000000
16 C -2.462000 -1.506800 1.451100 C 15 XO 0.000000
17 N -1.272200 -0.789400 1.533600 N 16 XO 0.000000
18 O 1.314400 -0.657600 1.383700 O 17 XO 0.000000
19 H 4.027600 2.219400 0.273500 H 18 XO 0.000000
20 H 2.474400 2.794300 -0.404200 H 19 XO 0.000000
21 H 3.977800 2.932300 -1.357200 H 20 XO 0.000000
22 H 5.080000 0.827700 -2.322100 H 21 XO 0.000000
23 H 4.366900 -0.768100 -1.972500 H 22 XO 0.000000
24 H 5.147700 0.168900 -0.666500 H 23 XO 0.000000
25 H 1.349000 1.449800 -2.291200 H 24 XO 0.000000
26 H 2.143100 -0.029600 -2.908600 H 25 XO 0.000000
27 H 2.826800 1.569700 -3.290800 H 26 XO 0.000000
28 H -0.146100 1.738400 1.973900 H 27 XO 0.000000
29 H -0.985000 2.419900 0.572800 H 28 XO 0.000000
30 H -3.266900 1.388600 0.290200 H 29 XO 0.000000
31 H -5.555000 -0.445100 0.308100 H 30 XO 0.000000
32 H -6.079100 -2.804900 0.943800 H 31 XO 0.000000
33 H -4.337500 -4.294600 1.880200 H 32 XO 0.000000
34 H -1.995500 -3.486700 2.221000 H 33 XO 0.000000
35 H 0.302700 -0.828800 1.574700 H 34 XO 0.000000

@<TRIPOS>BOND
1 1 2 1
2 2 3 1
3 2 4 1
4 2 5 1
5 5 6 1
6 6 7 2
7 6 18 1
8 7 8 1
9 8 9 1
10 9 10 ar
11 9 17 ar
12 10 11 ar
13 11 12 ar
14 11 16 ar
15 12 13 ar
16 13 14 ar
17 14 15 ar
18 15 16 ar
19 16 17 ar
20 1 19 1
21 1 20 1
22 1 21 1
23 3 22 1
24 3 23 1
25 3 24 1
26 4 25 1
27 4 26 1
28 4 27 1
29 8 28 1
30 8 29 1
31 10 30 1
32 12 31 1
33 13 32 1
34 14 33 1
35 15 34 1
36 18 35 1

@<COSMOlogic>TOTAL_CHARGE
0.0
