# Created by COSMOvis on Mon Aug 09 22:24:22 CEST 2021
#
#

#
#

@<TRIPOS>MOLECULE
SAMPL8-20_extra001_c0
28 30
SMALL
USER_CHARGES

@<TRIPOS>ATOM
1 C -4.712900 0.440500 -0.226200 C 0 XO 0.000000
2 C -3.892400 0.452200 -1.359800 C 1 XO 0.000000
3 C -4.158300 0.217400 1.040400 C 2 XO 0.000000
4 C -2.518800 0.245300 -1.230700 C 3 XO 0.000000
5 C -2.789500 -0.009200 1.180300 C 4 XO 0.000000
6 C 1.563800 -1.288000 0.886000 C 5 XO 0.000000
7 C 2.298500 -0.324100 0.188100 C 6 XO 0.000000
8 C -1.960100 0.005200 0.041800 C 7 XO 0.000000
9 C 0.174200 -1.199300 0.858400 C 8 XO 0.000000
10 C -0.504500 -0.166800 0.158300 C 9 XO 0.000000
11 C 1.604600 0.688200 -0.515800 C 10 XO 0.000000
12 C 3.655900 0.006100 -0.079300 C 11 XO 0.000000
13 N 0.256200 0.747500 -0.510400 N 12 XO 0.000000
14 N 3.779100 1.074600 -0.841400 N 13 XO 0.000000
15 N 2.513100 1.492000 -1.105600 N 14 XO 1.000000
16 N 4.856200 -0.669000 0.369800 N 15 XO 1.000000
17 Cl -0.742400 -2.452000 1.659800 Cl 16 XO 0.000000
18 H -5.786200 0.606400 -0.328900 H 17 XO 0.000000
19 H -4.321800 0.617200 -2.348600 H 18 XO 0.000000
20 H -4.794500 0.224000 1.926100 H 19 XO 0.000000
21 H -1.886900 0.231900 -2.120600 H 20 XO 0.000000
22 H -2.362700 -0.161100 2.170800 H 21 XO 0.000000
23 H 2.048900 -2.101800 1.423600 H 22 XO 0.000000
24 H 2.363700 2.314700 -1.687900 H 23 XO 0.000000
25 H 5.690000 -0.185800 -0.002400 H 24 XO 0.000000
26 H 4.905300 -1.647500 0.044300 H 25 XO 0.000000
27 H 4.945800 -0.674300 1.398300 H 26 XO 0.000000
28 H -0.224200 1.515700 -0.988500 H 27 XO 0.000000

@<TRIPOS>BOND
1 1 2 ar
2 1 3 ar
3 2 4 ar
4 3 5 ar
5 4 8 ar
6 5 8 ar
7 6 7 2
8 6 9 1
9 7 11 1
10 7 12 1
11 8 10 1
12 9 10 2
13 9 17 1
14 10 13 1
15 11 13 1
16 11 15 2
17 12 14 2
18 12 16 1
19 14 15 1
20 1 18 1
21 2 19 1
22 3 20 1
23 4 21 1
24 5 22 1
25 6 23 1
26 13 28 1
27 15 24 1
28 16 25 1
29 16 26 1
30 16 27 1

@<COSMOlogic>TOTAL_CHARGE
2.0
