# Created by COSMOvis on Mon Aug 09 22:24:20 CEST 2021
#
#

#
#

@<TRIPOS>MOLECULE
SAMPL8-13_micro000_c0
49 52
SMALL
USER_CHARGES

@<TRIPOS>ATOM
1 C -3.169500 2.485500 1.159600 C 0 XO 0.000000
2 C -2.800400 2.559300 2.507200 C 1 XO 0.000000
3 C -3.393700 1.241900 0.567100 C 2 XO 0.000000
4 C 5.105500 -1.058000 0.980500 C 3 XO 0.000000
5 C 5.421100 0.122700 0.312300 C 4 XO 0.000000
6 C -2.657200 1.388900 3.256700 C 5 XO 0.000000
7 C 3.179600 0.237100 -0.724900 C 6 XO 0.000000
8 C -0.720800 -1.510500 -0.063100 C 7 XO 0.000000
9 C 2.041500 -2.798200 0.852200 C 8 XO 0.000000
10 C -3.251900 0.046500 1.293100 C 9 XO 0.000000
11 C 3.824600 -1.598900 0.797200 C 10 XO 0.000000
12 C 2.891700 -0.950900 -0.056900 C 11 XO 0.000000
13 C -1.763600 -1.344700 -1.022400 C 12 XO 0.000000
14 C 4.461800 0.744800 -0.512800 C 13 XO 0.000000
15 C -2.883900 0.155300 2.642600 C 14 XO 0.000000
16 C -1.301500 -1.235100 -2.333000 C 15 XO 0.000000
17 C 0.517500 -1.539100 -0.660700 C 16 XO 0.000000
18 C -2.002500 -1.015500 -3.609500 C 17 XO 0.000000
19 C -5.033900 -1.608800 0.591800 C 18 XO 0.000000
20 C 4.708700 3.583300 -0.090000 C 19 XO 0.000000
21 C -3.544900 -1.290100 0.632100 C 20 XO 0.000000
22 N 3.259200 -2.745300 1.346400 N 21 XO 0.000000
23 N 1.743400 -1.745800 -0.005400 N 22 XO 0.000000
24 N -3.354600 -0.930300 -3.553500 N 23 XO 0.000000
25 O -1.360300 -0.917500 -4.678700 O 24 XO 0.000000
26 O 6.356800 2.226200 -1.730400 O 25 XO 0.000000
27 O 3.892900 2.535800 -2.436000 O 26 XO 0.000000
28 O -3.099000 -1.287400 -0.764400 O 27 XO 0.000000
29 S 0.446100 -1.377200 -2.404500 S 28 XO 0.000000
30 S 4.903900 2.294800 -1.350300 S 29 XO 0.000000
31 Cl -2.695900 -1.307800 3.638600 Cl 30 XO 0.000000
32 H -3.284000 3.396200 0.570300 H 31 XO 0.000000
33 H -2.622400 3.525400 2.981600 H 32 XO 0.000000
34 H -3.678000 1.184200 -0.484700 H 33 XO 0.000000
35 H 5.833600 -1.550100 1.625900 H 34 XO 0.000000
36 H 6.412700 0.562500 0.420400 H 35 XO 0.000000
37 H -2.370100 1.430300 4.307300 H 36 XO 0.000000
38 H 2.467500 0.746400 -1.373800 H 37 XO 0.000000
39 H -0.858900 -1.587800 1.012900 H 38 XO 0.000000
40 H 1.305600 -3.573400 1.051600 H 39 XO 0.000000
41 H -5.428900 -1.642000 1.616200 H 40 XO 0.000000
42 H -5.202300 -2.586000 0.119800 H 41 XO 0.000000
43 H -5.580600 -0.834900 0.035500 H 42 XO 0.000000
44 H 3.664600 3.581300 0.241500 H 43 XO 0.000000
45 H 4.969600 4.529600 -0.578800 H 44 XO 0.000000
46 H 5.393600 3.362600 0.736000 H 45 XO 0.000000
47 H -3.011400 -2.097000 1.153500 H 46 XO 0.000000
48 H -3.853800 -1.022200 -2.671400 H 47 XO 0.000000
49 H -3.877900 -0.785700 -4.412500 H 48 XO 0.000000

@<TRIPOS>BOND
1 1 2 ar
2 1 3 ar
3 2 6 ar
4 3 10 ar
5 4 5 ar
6 4 11 ar
7 5 14 ar
8 6 15 ar
9 7 12 ar
10 7 14 ar
11 8 13 ar
12 8 17 ar
13 9 22 ar
14 9 23 ar
15 10 15 ar
16 10 21 1
17 11 12 ar
18 11 22 ar
19 12 23 ar
20 13 16 ar
21 13 28 1
22 14 30 1
23 15 31 1
24 16 18 1
25 16 29 ar
26 17 23 1
27 17 29 ar
28 18 24 1
29 18 25 2
30 19 21 1
31 20 30 1
32 21 28 1
33 26 30 2
34 27 30 2
35 1 32 1
36 2 33 1
37 3 34 1
38 4 35 1
39 5 36 1
40 6 37 1
41 7 38 1
42 8 39 1
43 9 40 1
44 19 41 1
45 19 42 1
46 19 43 1
47 20 44 1
48 20 45 1
49 20 46 1
50 21 47 1
51 24 48 1
52 24 49 1

@<COSMOlogic>TOTAL_CHARGE
0.0
