# Created by COSMOvis on Mon Aug 09 22:24:20 CEST 2021
#
#

#
#

@<TRIPOS>MOLECULE
SAMPL8-10_micro001_c0
47 49
SMALL
USER_CHARGES

@<TRIPOS>ATOM
1 C 5.382800 2.021500 1.212600 C 0 XO 0.000000
2 C -6.810300 -2.846000 1.098800 C 1 XO 0.000000
3 C 4.026800 2.140700 0.901000 C 2 XO 0.000000
4 C 1.001600 1.967400 0.833700 C 3 XO 0.000000
5 C 1.318700 0.532000 -1.087800 C 4 XO 0.000000
6 C -0.351400 2.091000 0.517200 C 5 XO 0.000000
7 C -0.032800 0.657500 -1.405600 C 6 XO 0.000000
8 C -6.502900 -2.870100 -0.263200 C 7 XO 0.000000
9 C 6.056300 0.815600 0.996000 C 8 XO 0.000000
10 C -6.399700 -1.782700 1.909700 C 9 XO 0.000000
11 C 3.976400 -0.158400 0.153500 C 10 XO 0.000000
12 C 1.859500 1.184300 0.037600 C 11 XO 0.000000
13 C 3.300900 1.057200 0.366900 C 12 XO 0.000000
14 C -0.883600 1.435600 -0.604100 C 13 XO 0.000000
15 C -5.352100 -0.708200 -0.035200 C 14 XO 0.000000
16 C -5.782400 -1.807100 -0.793100 C 15 XO 0.000000
17 C 5.332400 -0.253900 0.464900 C 16 XO 0.000000
18 C -5.681900 -0.738500 1.332300 C 17 XO 0.000000
19 C 6.712500 -1.800300 -1.539900 C 18 XO 0.000000
20 C -2.344600 1.553700 -0.939600 C 19 XO 0.000000
21 C -4.614700 0.432400 -0.672900 C 20 XO 0.000000
22 N -3.137300 0.407100 -0.323100 N 21 XO 1.000000
23 O 5.163100 -2.941200 0.346800 O 22 XO 0.000000
24 O 7.401700 -1.873300 1.064200 O 23 XO 0.000000
25 F -5.476800 -1.826100 -2.120500 F 24 XO 0.000000
26 S 6.178300 -1.843100 0.192400 S 25 XO 0.000000
27 Cl -5.150100 0.601900 2.361100 Cl 26 XO 0.000000
28 H 5.923100 2.875300 1.623400 H 27 XO 0.000000
29 H -7.374800 -3.668400 1.538800 H 28 XO 0.000000
30 H 3.527000 3.097700 1.057900 H 29 XO 0.000000
31 H 1.389900 2.472600 1.719100 H 30 XO 0.000000
32 H 1.966200 -0.054500 -1.741400 H 31 XO 0.000000
33 H -0.996400 2.706700 1.148300 H 32 XO 0.000000
34 H -0.425000 0.160100 -2.295400 H 33 XO 0.000000
35 H -6.812200 -3.692500 -0.907600 H 34 XO 0.000000
36 H 7.112800 0.708000 1.241700 H 35 XO 0.000000
37 H -6.635000 -1.767500 2.972800 H 36 XO 0.000000
38 H 3.440100 -1.031400 -0.220500 H 37 XO 0.000000
39 H 7.228200 -2.750800 -1.722500 H 38 XO 0.000000
40 H 7.390800 -0.949600 -1.668100 H 39 XO 0.000000
41 H 5.822800 -1.704500 -2.171800 H 40 XO 0.000000
42 H -2.787600 2.476700 -0.548600 H 41 XO 0.000000
43 H -2.525700 1.496800 -2.019200 H 42 XO 0.000000
44 H -4.678000 0.392800 -1.764400 H 43 XO 0.000000
45 H -4.996900 1.400300 -0.328500 H 44 XO 0.000000
46 H -2.726700 -0.489200 -0.621300 H 45 XO 0.000000
47 H -3.032700 0.432300 0.703900 H 46 XO 0.000000

@<TRIPOS>BOND
1 1 3 ar
2 1 9 ar
3 2 8 ar
4 2 10 ar
5 3 13 ar
6 4 6 ar
7 4 12 ar
8 5 7 ar
9 5 12 ar
10 6 14 ar
11 7 14 ar
12 8 16 ar
13 9 17 ar
14 10 18 ar
15 11 13 ar
16 11 17 ar
17 12 13 1
18 14 20 1
19 15 16 ar
20 15 18 ar
21 15 21 1
22 16 25 1
23 17 26 1
24 18 27 1
25 19 26 1
26 20 22 1
27 21 22 1
28 23 26 2
29 24 26 2
30 1 28 1
31 2 29 1
32 3 30 1
33 4 31 1
34 5 32 1
35 6 33 1
36 7 34 1
37 8 35 1
38 9 36 1
39 10 37 1
40 11 38 1
41 19 39 1
42 19 40 1
43 19 41 1
44 20 42 1
45 20 43 1
46 21 44 1
47 21 45 1
48 22 46 1
49 22 47 1

@<COSMOlogic>TOTAL_CHARGE
1.0
