# Created by COSMOvis on Mon Aug 09 22:24:22 CEST 2021
#
#

#
#

@<TRIPOS>MOLECULE
SAMPL8-19_micro024_c0
46 49
SMALL
USER_CHARGES

@<TRIPOS>ATOM
1 C -0.830500 1.809200 8.714300 C 0 XO 0.000000
2 C -2.162100 1.746200 8.247900 C 1 XO 0.000000
3 C -0.121800 0.661300 9.070200 C 2 XO 0.000000
4 C -2.837000 0.531400 8.116500 C 3 XO 0.000000
5 C 5.892800 -1.619100 11.065400 C 4 XO 0.000000
6 C 5.283900 -3.208300 12.702000 C 5 XO 0.000000
7 C 5.509300 -2.938800 11.349200 C 6 XO 0.000000
8 C -0.793000 -0.558500 8.938600 C 7 XO 0.000000
9 C -2.125100 -0.618000 8.469400 C 8 XO 0.000000
10 C -1.426300 -2.690200 8.897100 C 9 XO 0.000000
11 C 5.768600 -1.059600 13.263600 C 10 XO 0.000000
12 C 2.900000 -3.365400 10.036200 C 11 XO 0.000000
13 C 3.974300 -4.155500 9.710200 C 12 XO 0.000000
14 C 3.768000 -5.216700 8.728600 C 13 XO 0.000000
15 C 1.531200 -4.568500 8.660700 C 14 XO 0.000000
16 C -3.796900 -2.464200 8.033300 C 15 XO 0.000000
17 C 5.645300 -0.396000 15.561100 C 16 XO 0.000000
18 C 5.365900 -3.989900 10.280100 C 17 XO 0.000000
19 C -1.311100 -4.162200 9.044600 C 18 XO 0.000000
20 N 6.028800 -0.670600 12.002400 N 19 XO 0.000000
21 N 5.408600 -2.282900 13.671100 N 20 XO 0.000000
22 N -0.411800 -1.865300 9.202800 N 21 XO 1.000000
23 N 2.473500 -5.404300 8.254800 N 22 XO 0.000000
24 N -2.485700 -1.969500 8.454800 N 23 XO 0.000000
25 N 1.647400 -3.531600 9.502800 N 24 XO 0.000000
26 O 4.703500 -5.957100 8.326500 O 25 XO -1.000000
27 O 5.908500 -0.070100 14.172600 O 26 XO 0.000000
28 S -0.074600 -4.932700 7.891600 S 27 XO 0.000000
29 H -0.344200 2.781600 8.800000 H 28 XO 0.000000
30 H -2.676800 2.670300 7.982800 H 29 XO 0.000000
31 H 0.904600 0.712000 9.432500 H 30 XO 0.000000
32 H -3.864300 0.487600 7.755800 H 31 XO 0.000000
33 H 6.110300 -1.313400 10.037200 H 32 XO 0.000000
34 H 4.998800 -4.212100 13.032000 H 33 XO 0.000000
35 H 2.994800 -2.541200 10.746900 H 34 XO 0.000000
36 H -3.961900 -2.210300 6.979300 H 35 XO 0.000000
37 H -3.838500 -3.549700 8.153300 H 36 XO 0.000000
38 H -4.575100 -2.006000 8.655200 H 37 XO 0.000000
39 H 5.813200 0.538900 16.104600 H 38 XO 0.000000
40 H 6.334000 -1.174400 15.913900 H 39 XO 0.000000
41 H 4.608900 -0.733800 15.690100 H 40 XO 0.000000
42 H 6.060700 -3.770100 9.451800 H 41 XO 0.000000
43 H 5.693200 -4.966000 10.675600 H 42 XO 0.000000
44 H -1.026300 -4.418600 10.072700 H 43 XO 0.000000
45 H -2.254800 -4.667800 8.816700 H 44 XO 0.000000
46 H 0.539900 -2.345400 9.445600 H 45 XO 0.000000

@<TRIPOS>BOND
1 1 2 ar
2 1 3 ar
3 2 4 ar
4 3 8 ar
5 4 9 ar
6 5 7 ar
7 5 20 ar
8 6 7 ar
9 6 21 ar
10 7 18 1
11 8 9 ar
12 8 22 1
13 9 24 1
14 10 19 1
15 10 22 2
16 10 24 1
17 11 20 ar
18 11 21 ar
19 11 27 1
20 12 13 ar
21 12 25 ar
22 13 14 ar
23 13 18 1
24 14 23 ar
25 14 26 1
26 15 23 ar
27 15 25 ar
28 15 28 1
29 16 24 1
30 17 27 1
31 19 28 1
32 1 29 1
33 2 30 1
34 3 31 1
35 4 32 1
36 5 33 1
37 6 34 1
38 12 35 1
39 16 36 1
40 16 37 1
41 16 38 1
42 17 39 1
43 17 40 1
44 17 41 1
45 18 42 1
46 18 43 1
47 19 44 1
48 19 45 1
49 22 46 1

@<COSMOlogic>TOTAL_CHARGE
0.0
