# Created by COSMOvis on Mon Aug 09 22:24:21 CEST 2021
#
#

#
#

@<TRIPOS>MOLECULE
SAMPL8-19_micro007_c0
46 49
SMALL
USER_CHARGES

@<TRIPOS>ATOM
1 C -3.027300 -1.837100 11.350100 C 0 XO 0.000000
2 C -3.984100 -1.420800 10.396500 C 1 XO 0.000000
3 C -1.667300 -1.894000 11.042900 C 2 XO 0.000000
4 C -3.613800 -1.045500 9.102900 C 3 XO 0.000000
5 C 6.219800 -2.245900 12.781300 C 4 XO 0.000000
6 C 7.279300 -1.389400 10.853300 C 5 XO 0.000000
7 C 6.327400 -1.197500 11.857300 C 6 XO 0.000000
8 C -1.275900 -1.518600 9.748600 C 7 XO 0.000000
9 C -2.248500 -1.101700 8.801700 C 8 XO 0.000000
10 C -0.216600 -1.054300 7.914200 C 9 XO 0.000000
11 C 7.838600 -3.421100 11.705600 C 10 XO 0.000000
12 C 4.686000 1.174000 9.812300 C 11 XO 0.000000
13 C 4.530300 0.207900 10.779900 C 12 XO 0.000000
14 C 3.391200 -0.683500 10.683400 C 13 XO 0.000000
15 C 2.849900 0.508700 8.632600 C 14 XO 0.000000
16 C -2.147200 -0.321700 6.402900 C 15 XO 0.000000
17 C 9.532200 -4.718500 10.617300 C 16 XO 0.000000
18 C 5.477600 0.054600 11.943800 C 17 XO 0.000000
19 C 0.910300 -0.838200 6.970600 C 18 XO 0.000000
20 N 6.962400 -3.360000 12.724100 N 19 XO 0.000000
21 N 8.044200 -2.492900 10.762800 N 20 XO 0.000000
22 N -0.019400 -1.482900 9.160400 N 21 XO 0.000000
23 N 2.570400 -0.447000 9.555500 N 22 XO 0.000000
24 N -1.542700 -0.808100 7.640600 N 23 XO 0.000000
25 N 3.878100 1.327700 8.717300 N 24 XO 0.000000
26 O 3.085000 -1.575300 11.491600 O 25 XO 0.000000
27 O 8.562000 -4.562100 11.683800 O 26 XO 0.000000
28 S 1.804400 0.783800 7.206800 S 27 XO 0.000000
29 H -3.363500 -2.120800 12.348600 H 28 XO 0.000000
30 H -5.037900 -1.390600 10.677500 H 29 XO 0.000000
31 H -0.930200 -2.217200 11.779300 H 30 XO 0.000000
32 H -4.356600 -0.724100 8.372000 H 31 XO 0.000000
33 H 5.503400 -2.184500 13.606000 H 32 XO 0.000000
34 H 7.445800 -0.630600 10.082700 H 33 XO 0.000000
35 H 5.514400 1.884700 9.878600 H 34 XO 0.000000
36 H -2.564300 0.682600 6.555000 H 35 XO 0.000000
37 H -1.392300 -0.276300 5.612800 H 36 XO 0.000000
38 H -2.944000 -1.007000 6.086700 H 37 XO 0.000000
39 H 9.989000 -5.696800 10.795800 H 38 XO 0.000000
40 H 10.290900 -3.926500 10.663900 H 39 XO 0.000000
41 H 9.037800 -4.698600 9.637500 H 40 XO 0.000000
42 H 4.903100 0.024300 12.882400 H 41 XO 0.000000
43 H 6.128200 0.941100 11.990700 H 42 XO 0.000000
44 H 1.647900 -1.643400 7.065600 H 43 XO 0.000000
45 H 0.590000 -0.798800 5.923900 H 44 XO 0.000000
46 H 1.657000 -0.982100 9.523300 H 45 XO 0.000000

@<TRIPOS>BOND
1 1 2 ar
2 1 3 ar
3 2 4 ar
4 3 8 ar
5 4 9 ar
6 5 7 ar
7 5 20 ar
8 6 7 ar
9 6 21 ar
10 7 18 1
11 8 9 ar
12 8 22 ar
13 9 24 ar
14 10 19 1
15 10 22 ar
16 10 24 ar
17 11 20 ar
18 11 21 ar
19 11 27 1
20 12 13 2
21 12 25 1
22 13 14 1
23 13 18 1
24 14 23 1
25 14 26 2
26 15 23 1
27 15 25 2
28 15 28 1
29 16 24 1
30 17 27 1
31 19 28 1
32 1 29 1
33 2 30 1
34 3 31 1
35 4 32 1
36 5 33 1
37 6 34 1
38 12 35 1
39 16 36 1
40 16 37 1
41 16 38 1
42 17 39 1
43 17 40 1
44 17 41 1
45 18 42 1
46 18 43 1
47 19 44 1
48 19 45 1
49 23 46 1

@<COSMOlogic>TOTAL_CHARGE
0.0
