# Created by COSMOvis on Mon Aug 09 22:24:21 CEST 2021
#
#

#
#

@<TRIPOS>MOLECULE
SAMPL8-14_micro003_c0
41 42
SMALL
USER_CHARGES

@<TRIPOS>ATOM
1 C -1.244000 0.419100 3.916100 C 0 XO 0.000000
2 C -0.926100 -0.008000 2.505600 C 1 XO 0.000000
3 C 0.387200 -0.281100 2.112100 C 2 XO 0.000000
4 C 0.704400 -0.688800 0.806900 C 3 XO 0.000000
5 C -0.360800 -0.813300 -0.102400 C 4 XO 0.000000
6 C -1.698900 -0.554100 0.225900 C 5 XO 0.000000
7 C -2.027200 -0.129500 1.576800 C 6 XO 0.000000
8 O -3.239900 0.132800 1.971800 O 7 XO -1.000000
9 C -2.820000 -0.710800 -0.820000 C 8 XO 0.000000
10 C -3.844200 -1.764000 -0.331100 C 9 XO 0.000000
11 C -3.536400 0.647800 -1.016100 C 10 XO 0.000000
12 C -2.301500 -1.166800 -2.197100 C 11 XO 0.000000
13 C 2.134100 -0.952900 0.382400 C 12 XO 0.000000
14 C 2.869300 0.207000 -0.266700 C 13 XO 0.000000
15 C 2.294100 1.439200 -0.474800 C 14 XO 0.000000
16 N 2.915100 2.510300 -1.055000 N 15 XO 0.000000
17 C 4.190300 2.262300 -1.428800 C 16 XO 0.000000
18 N 4.875300 1.121000 -1.304800 N 17 XO 0.000000
19 C 4.248600 0.033100 -0.713600 C 18 XO 0.000000
20 N 4.951300 -1.089600 -0.602800 N 19 XO -1.000000
21 N 4.888500 3.351500 -1.963000 N 20 XO 0.000000
22 H -1.949300 -0.277000 4.401800 H 21 XO 0.000000
23 H -0.333400 0.474800 4.531200 H 22 XO 0.000000
24 H -1.740200 1.404500 3.939300 H 23 XO 0.000000
25 H 1.193100 -0.175600 2.849700 H 24 XO 0.000000
26 H -0.116500 -1.127000 -1.120800 H 25 XO 0.000000
27 H -4.684900 -1.846300 -1.040100 H 26 XO 0.000000
28 H -3.369900 -2.755100 -0.250700 H 27 XO 0.000000
29 H -4.230500 -1.473600 0.654900 H 28 XO 0.000000
30 H -2.838400 1.394800 -1.426300 H 29 XO 0.000000
31 H -3.916900 1.008500 -0.051400 H 30 XO 0.000000
32 H -4.378300 0.544600 -1.721600 H 31 XO 0.000000
33 H -1.806700 -2.149300 -2.148400 H 32 XO 0.000000
34 H -1.589900 -0.445700 -2.628600 H 33 XO 0.000000
35 H -3.150400 -1.255900 -2.893400 H 34 XO 0.000000
36 H 2.715400 -1.289600 1.263000 H 35 XO 0.000000
37 H 2.154300 -1.812800 -0.316500 H 36 XO 0.000000
38 H 1.256400 1.601600 -0.166000 H 37 XO 0.000000
39 H 4.365100 -1.803400 -0.153800 H 38 XO 0.000000
40 H 5.673200 3.088900 -2.556400 H 39 XO 0.000000
41 H 4.288600 4.056700 -2.387300 H 40 XO 0.000000

@<TRIPOS>BOND
1 1 2 1
2 2 3 ar
3 2 7 ar
4 3 4 ar
5 4 5 ar
6 4 13 1
7 5 6 ar
8 6 7 ar
9 6 9 1
10 7 8 1
11 9 10 1
12 9 11 1
13 9 12 1
14 13 14 1
15 14 15 ar
16 14 19 ar
17 15 16 ar
18 16 17 ar
19 17 18 ar
20 17 21 1
21 18 19 ar
22 19 20 1
23 1 22 1
24 1 23 1
25 1 24 1
26 3 25 1
27 5 26 1
28 10 27 1
29 10 28 1
30 10 29 1
31 11 30 1
32 11 31 1
33 11 32 1
34 12 33 1
35 12 34 1
36 12 35 1
37 13 36 1
38 13 37 1
39 15 38 1
40 20 39 1
41 21 40 1
42 21 41 1

@<COSMOlogic>TOTAL_CHARGE
-2.0
