# Created by COSMOvis on Mon Aug 09 22:24:23 CEST 2021
#
#

#
#

@<TRIPOS>MOLECULE
SAMPL8-23_micro005_c0
17 18
SMALL
USER_CHARGES

@<TRIPOS>ATOM
1 C -2.766600 0.407900 0.350400 C 0 XO 0.000000
2 C -1.770400 0.161800 1.292500 C 1 XO 0.000000
3 C -1.147300 0.324000 -1.474900 C 2 XO 0.000000
4 C -0.140600 0.075600 -0.532000 C 3 XO 0.000000
5 C -2.512700 0.500300 -1.073500 C 4 XO 0.000000
6 C -0.449900 -0.005800 0.852900 C 5 XO 0.000000
7 C 1.936300 -0.325100 0.222100 C 6 XO 0.000000
8 C 3.411200 -0.566200 0.216800 C 7 XO 0.000000
9 N 1.212500 -0.109200 -0.839800 N 8 XO 0.000000
10 O -3.467900 0.728300 -1.920900 O 9 XO -1.000000
11 S 1.029700 -0.326800 1.767600 S 10 XO 0.000000
12 H -3.800000 0.539400 0.683200 H 11 XO 0.000000
13 H -2.020900 0.101600 2.354100 H 12 XO 0.000000
14 H -0.891800 0.382900 -2.536100 H 13 XO 0.000000
15 H 3.788000 -0.476300 -0.809600 H 14 XO 0.000000
16 H 3.938500 0.159300 0.853600 H 15 XO 0.000000
17 H 3.652000 -1.571600 0.593800 H 16 XO 0.000000

@<TRIPOS>BOND
1 1 2 ar
2 1 5 ar
3 2 6 ar
4 3 4 ar
5 3 5 ar
6 4 6 ar
7 4 9 ar
8 5 10 1
9 6 11 ar
10 7 8 1
11 7 9 ar
12 7 11 ar
13 1 12 1
14 2 13 1
15 3 14 1
16 8 15 1
17 8 16 1
18 8 17 1

@<COSMOlogic>TOTAL_CHARGE
-1.0
