# Created by COSMOvis on Mon Aug 09 22:24:22 CEST 2021
#
#

#
#

@<TRIPOS>MOLECULE
SAMPL8-20_micro006_c0
27 29
SMALL
USER_CHARGES

@<TRIPOS>ATOM
1 C -4.618300 -0.156200 -0.462600 C 0 XO 0.000000
2 C -3.812600 -1.202000 -0.925600 C 1 XO 0.000000
3 C -4.034600 0.957900 0.153400 C 2 XO 0.000000
4 C -2.425700 -1.135700 -0.777000 C 3 XO 0.000000
5 C -2.650800 1.026900 0.319200 C 4 XO 0.000000
6 C 1.770500 0.345100 1.143400 C 5 XO 0.000000
7 C 2.435000 0.095800 -0.048300 C 6 XO 0.000000
8 C -1.836500 -0.022100 -0.146900 C 7 XO 0.000000
9 C 0.370800 0.314500 1.137900 C 8 XO 0.000000
10 C -0.365600 0.048700 -0.038200 C 9 XO 0.000000
11 C 1.692300 -0.191400 -1.243300 C 10 XO 0.000000
12 C 3.798400 0.029300 -0.481600 C 11 XO 0.000000
13 N 0.324400 -0.196400 -1.185100 N 12 XO 0.000000
14 N 3.726800 -0.266800 -1.798400 N 13 XO 0.000000
15 N 2.440400 -0.413000 -2.311600 N 14 XO 0.000000
16 N 4.939800 0.152400 0.222600 N 15 XO 1.000000
17 Cl -0.463300 0.543000 2.667000 Cl 16 XO 0.000000
18 H -5.701600 -0.207700 -0.582400 H 17 XO 0.000000
19 H -4.262700 -2.074900 -1.400300 H 18 XO 0.000000
20 H -4.659700 1.780600 0.503300 H 19 XO 0.000000
21 H -1.802700 -1.962600 -1.122800 H 20 XO 0.000000
22 H -2.202400 1.904600 0.784300 H 21 XO 0.000000
23 H 2.303300 0.546700 2.073200 H 22 XO 0.000000
24 H 5.827000 0.237600 -0.266200 H 23 XO 0.000000
25 H 4.901600 0.584900 1.140600 H 24 XO 0.000000
26 H -0.206700 -0.348500 -2.046400 H 25 XO 0.000000
27 H 4.512700 -0.390900 -2.433100 H 26 XO 0.000000

@<TRIPOS>BOND
1 1 2 ar
2 1 3 ar
3 2 4 ar
4 3 5 ar
5 4 8 ar
6 5 8 ar
7 6 7 2
8 6 9 1
9 7 11 1
10 7 12 1
11 8 10 1
12 9 10 2
13 9 17 1
14 10 13 1
15 11 13 1
16 11 15 2
17 12 14 1
18 12 16 2
19 14 15 1
20 1 18 1
21 2 19 1
22 3 20 1
23 4 21 1
24 5 22 1
25 6 23 1
26 13 26 1
27 14 27 1
28 16 24 1
29 16 25 1

@<COSMOlogic>TOTAL_CHARGE
1.0
