# Created by COSMOvis on Mon Aug 09 22:24:20 CEST 2021
#
#

#
#

@<TRIPOS>MOLECULE
SAMPL8-14_extra007_c0
43 44
SMALL
USER_CHARGES

@<TRIPOS>ATOM
1 C -3.138100 -2.918900 2.394700 C 0 XO 0.000000
2 C -3.352600 -1.028100 0.913900 C 1 XO 0.000000
3 C -5.406900 -5.505500 0.140300 C 2 XO 0.000000
4 C -3.776300 -2.321400 1.287300 C 3 XO 0.000000
5 C -2.123300 -2.270400 3.092600 C 4 XO 0.000000
6 C -2.338500 -0.322500 1.575000 C 5 XO 0.000000
7 C -4.567600 -4.384300 -0.003900 C 6 XO 0.000000
8 C -1.674500 -0.942000 2.712300 C 7 XO 0.000000
9 C -3.401800 -4.687800 -0.705500 C 8 XO 0.000000
10 C -3.963000 -6.862400 -1.007100 C 9 XO 0.000000
11 C -1.447800 -2.921600 4.271000 C 10 XO 0.000000
12 C -2.734100 1.587400 -0.095400 C 11 XO 0.000000
13 C -0.428600 1.084600 0.713000 C 12 XO 0.000000
14 C -2.141400 2.093700 2.273600 C 13 XO 0.000000
15 C -4.915200 -3.018500 0.553800 C 14 XO 0.000000
16 C -1.923400 1.088300 1.116300 C 15 XO 0.000000
17 N -5.139500 -6.720900 -0.341800 N 16 XO 0.000000
18 N -3.061000 -5.864200 -1.200900 N 17 XO 0.000000
19 N -2.404900 -3.617900 -0.935900 N 18 XO 1.000000
20 N -3.651500 -8.087400 -1.486100 N 19 XO 0.000000
21 O -0.725900 -0.372000 3.380300 O 20 XO -1.000000
22 H -3.447500 -3.919800 2.716800 H 21 XO 0.000000
23 H -3.858100 -0.561600 0.064300 H 22 XO 0.000000
24 H -6.350700 -5.400300 0.684900 H 23 XO 0.000000
25 H -1.551600 -2.308700 5.181500 H 24 XO 0.000000
26 H -1.866100 -3.918800 4.471000 H 25 XO 0.000000
27 H -0.362600 -3.024600 4.104000 H 26 XO 0.000000
28 H -2.390700 2.597100 -0.368400 H 27 XO 0.000000
29 H -2.600800 0.941500 -0.977200 H 28 XO 0.000000
30 H -3.811200 1.650700 0.124200 H 29 XO 0.000000
31 H -0.263700 0.421700 -0.150900 H 30 XO 0.000000
32 H -0.104600 2.099800 0.430000 H 31 XO 0.000000
33 H 0.185800 0.732800 1.552000 H 32 XO 0.000000
34 H -3.209400 2.155200 2.536500 H 33 XO 0.000000
35 H -1.576600 1.775200 3.159300 H 34 XO 0.000000
36 H -1.806200 3.100900 1.975300 H 35 XO 0.000000
37 H -5.788800 -3.147700 1.214200 H 36 XO 0.000000
38 H -5.258700 -2.367700 -0.268600 H 37 XO 0.000000
39 H -2.551100 -3.157700 -1.846600 H 38 XO 0.000000
40 H -1.450700 -4.005500 -0.943800 H 39 XO 0.000000
41 H -4.351900 -8.820900 -1.465000 H 40 XO 0.000000
42 H -2.845000 -8.202000 -2.090500 H 41 XO 0.000000
43 H -2.505700 -2.892800 -0.173000 H 42 XO 0.000000

@<TRIPOS>BOND
1 1 4 ar
2 1 5 ar
3 2 4 ar
4 2 6 ar
5 3 7 ar
6 3 17 ar
7 4 15 1
8 5 8 ar
9 5 11 1
10 6 8 ar
11 6 16 1
12 7 9 ar
13 7 15 1
14 8 21 1
15 9 18 ar
16 9 19 1
17 10 17 ar
18 10 18 ar
19 10 20 1
20 12 16 1
21 13 16 1
22 14 16 1
23 1 22 1
24 2 23 1
25 3 24 1
26 11 25 1
27 11 26 1
28 11 27 1
29 12 28 1
30 12 29 1
31 12 30 1
32 13 31 1
33 13 32 1
34 13 33 1
35 14 34 1
36 14 35 1
37 14 36 1
38 15 37 1
39 15 38 1
40 19 39 1
41 19 40 1
42 19 43 1
43 20 41 1
44 20 42 1

@<COSMOlogic>TOTAL_CHARGE
0.0
