# Created by COSMOvis on Mon Aug 09 22:24:21 CEST 2021
#
#

#
#

@<TRIPOS>MOLECULE
SAMPL8-19_micro006_c0
47 50
SMALL
USER_CHARGES

@<TRIPOS>ATOM
1 C 3.606500 -1.172000 0.770900 C 0 XO 0.000000
2 N 2.236700 -1.640200 0.570100 N 1 XO 0.000000
3 C 1.461800 -1.346900 -0.547300 C 2 XO 0.000000
4 C 1.733700 -0.595400 -1.695700 C 3 XO 0.000000
5 C 0.710200 -0.510100 -2.640700 C 4 XO 0.000000
6 C -0.536400 -1.147500 -2.444500 C 5 XO 0.000000
7 C -0.804300 -1.892200 -1.296500 C 6 XO 0.000000
8 C 0.214600 -1.989800 -0.337200 C 7 XO 0.000000
9 N 0.247200 -2.637900 0.888300 N 8 XO 0.000000
10 C 1.459700 -2.412500 1.394900 C 9 XO 0.000000
11 C 1.876400 -2.973500 2.706400 C 10 XO 0.000000
12 S 2.106600 -4.827800 2.700500 S 11 XO 0.000000
13 C 0.443300 -5.418700 2.751600 C 12 XO 0.000000
14 N 0.254000 -6.633500 3.297600 N 13 XO 0.000000
15 C -0.988500 -7.232300 3.334800 C 14 XO 0.000000
16 C -2.095400 -6.597900 2.863500 C 15 XO 0.000000
17 C -1.944500 -5.261600 2.291700 C 16 XO 0.000000
18 O -2.853800 -4.572300 1.833800 O 17 XO 0.000000
19 N -0.608400 -4.766600 2.257700 N 18 XO 1.000000
20 C -3.485500 -7.184900 2.883400 C 19 XO 0.000000
21 C -3.593200 -8.564400 3.478100 C 20 XO 0.000000
22 C -3.507500 -9.723700 2.702700 C 21 XO 0.000000
23 N -3.607700 -10.961800 3.217800 N 22 XO 0.000000
24 C -3.797800 -11.028100 4.541800 C 23 XO 0.000000
25 N -3.914800 -9.993900 5.396400 N 24 XO 0.000000
26 C -3.810000 -8.777300 4.848800 C 25 XO 0.000000
27 O -3.897600 -12.232500 5.139100 O 26 XO 0.000000
28 C -3.788700 -13.409700 4.297300 C 27 XO 0.000000
29 H 3.978300 -1.510700 1.741500 H 28 XO 0.000000
30 H 3.629500 -0.075100 0.747600 H 29 XO 0.000000
31 H 4.254900 -1.572900 -0.018600 H 30 XO 0.000000
32 H 2.693100 -0.101600 -1.852100 H 31 XO 0.000000
33 H 0.876700 0.062800 -3.554100 H 32 XO 0.000000
34 H -1.306100 -1.051900 -3.212000 H 33 XO 0.000000
35 H -1.767500 -2.381000 -1.146100 H 34 XO 0.000000
36 H 2.855800 -2.613400 3.037400 H 35 XO 0.000000
37 H 1.147800 -2.740200 3.491100 H 36 XO 0.000000
38 H 1.045800 -7.117700 3.723200 H 37 XO 0.000000
39 H -0.999800 -8.224600 3.779800 H 38 XO 0.000000
40 H -0.430100 -3.843800 1.674300 H 39 XO 0.000000
41 H -3.866400 -7.190600 1.849100 H 40 XO 0.000000
42 H -4.139900 -6.486200 3.429900 H 41 XO 0.000000
43 H -3.360900 -9.663900 1.620100 H 42 XO 0.000000
44 H -3.912900 -7.930300 5.534200 H 43 XO 0.000000
45 H -2.812800 -13.437600 3.796300 H 44 XO 0.000000
46 H -4.590400 -13.424100 3.547800 H 45 XO 0.000000
47 H -3.891700 -14.254700 4.984700 H 46 XO 0.000000

@<TRIPOS>BOND
1 1 2 1
2 2 3 ar
3 2 10 ar
4 3 4 ar
5 3 8 ar
6 4 5 ar
7 5 6 ar
8 6 7 ar
9 7 8 ar
10 8 9 ar
11 9 10 ar
12 10 11 1
13 11 12 1
14 12 13 1
15 13 14 1
16 13 19 2
17 14 15 1
18 15 16 2
19 16 17 1
20 16 20 1
21 17 18 2
22 17 19 1
23 20 21 1
24 21 22 ar
25 21 26 ar
26 22 23 ar
27 23 24 ar
28 24 25 ar
29 24 27 1
30 25 26 ar
31 27 28 1
32 1 29 1
33 1 30 1
34 1 31 1
35 4 32 1
36 5 33 1
37 6 34 1
38 7 35 1
39 11 36 1
40 11 37 1
41 14 38 1
42 15 39 1
43 19 40 1
44 20 41 1
45 20 42 1
46 22 43 1
47 26 44 1
48 28 45 1
49 28 46 1
50 28 47 1

@<COSMOlogic>TOTAL_CHARGE
1.0
