# Created by COSMOvis on Mon Aug 09 22:24:21 CEST 2021
#
#

#
#

@<TRIPOS>MOLECULE
SAMPL8-14_micro007_c0
41 42
SMALL
USER_CHARGES

@<TRIPOS>ATOM
1 C -1.528300 -2.109200 2.542400 C 0 XO 0.000000
2 C -1.169400 -1.338200 1.297600 C 1 XO 0.000000
3 C 0.103900 -1.434600 0.731600 C 2 XO 0.000000
4 C 0.458700 -0.721800 -0.424500 C 3 XO 0.000000
5 C -0.524300 0.103100 -0.996000 C 4 XO 0.000000
6 C -1.821400 0.246300 -0.478900 C 5 XO 0.000000
7 C -2.189100 -0.491500 0.716100 C 6 XO 0.000000
8 O -3.364500 -0.419800 1.272200 O 7 XO -1.000000
9 C -2.848200 1.176400 -1.152900 C 8 XO 0.000000
10 C -4.087000 0.354500 -1.586000 C 9 XO 0.000000
11 C -3.286800 2.274300 -0.153000 C 10 XO 0.000000
12 C -2.293400 1.880700 -2.405800 C 11 XO 0.000000
13 C 1.835500 -0.862800 -1.065700 C 12 XO 0.000000
14 C 3.020100 -0.686800 -0.144900 C 13 XO 0.000000
15 C 3.931400 -1.702600 0.089400 C 14 XO 0.000000
16 N 5.048900 -1.651900 0.857600 N 15 XO 0.000000
17 C 5.323800 -0.457000 1.470500 C 16 XO 0.000000
18 N 4.439000 0.607900 1.267300 N 17 XO 0.000000
19 C 3.277900 0.585100 0.491400 C 18 XO 0.000000
20 N 2.577100 1.695400 0.422600 N 19 XO -1.000000
21 N 6.366500 -0.226500 2.245500 N 20 XO 0.000000
22 H -0.680200 -2.714400 2.895500 H 21 XO 0.000000
23 H -2.387000 -2.780300 2.370300 H 22 XO 0.000000
24 H -1.839400 -1.435800 3.359200 H 23 XO 0.000000
25 H 0.849500 -2.082700 1.208400 H 24 XO 0.000000
26 H -0.248100 0.661300 -1.895600 H 25 XO 0.000000
27 H -4.858800 1.014200 -2.016900 H 26 XO 0.000000
28 H -4.505000 -0.170200 -0.716600 H 27 XO 0.000000
29 H -3.809700 -0.387900 -2.351000 H 28 XO 0.000000
30 H -3.685200 1.808200 0.757800 H 29 XO 0.000000
31 H -2.430400 2.912200 0.117300 H 30 XO 0.000000
32 H -4.063100 2.918400 -0.599500 H 31 XO 0.000000
33 H -1.426900 2.517900 -2.170600 H 32 XO 0.000000
34 H -3.075300 2.526400 -2.835600 H 33 XO 0.000000
35 H -1.990600 1.162200 -3.183100 H 34 XO 0.000000
36 H 1.894000 -0.134500 -1.897000 H 35 XO 0.000000
37 H 1.935400 -1.857500 -1.538100 H 36 XO 0.000000
38 H 3.753900 -2.672500 -0.395500 H 37 XO 0.000000
39 H 4.659500 1.486700 1.735700 H 38 XO 0.000000
40 H 1.730800 1.507000 -0.127900 H 39 XO 0.000000
41 H 6.906300 -1.099600 2.286800 H 40 XO 0.000000

@<TRIPOS>BOND
1 1 2 1
2 2 3 ar
3 2 7 ar
4 3 4 ar
5 4 5 ar
6 4 13 1
7 5 6 ar
8 6 7 ar
9 6 9 1
10 7 8 1
11 9 10 1
12 9 11 1
13 9 12 1
14 13 14 1
15 14 15 1
16 14 19 2
17 15 16 2
18 16 17 1
19 17 18 1
20 17 21 2
21 18 19 1
22 19 20 1
23 1 22 1
24 1 23 1
25 1 24 1
26 3 25 1
27 5 26 1
28 10 27 1
29 10 28 1
30 10 29 1
31 11 30 1
32 11 31 1
33 11 32 1
34 12 33 1
35 12 34 1
36 12 35 1
37 13 36 1
38 13 37 1
39 15 38 1
40 18 39 1
41 20 40 1
42 21 41 1

@<COSMOlogic>TOTAL_CHARGE
-2.0
