# Created by COSMOvis on Mon Aug 09 22:24:22 CEST 2021
#
#

#
#

@<TRIPOS>MOLECULE
SAMPL8-19_micro019_c0
47 50
SMALL
USER_CHARGES

@<TRIPOS>ATOM
1 C -4.474000 -1.779200 -3.895100 C 0 XO 0.000000
2 N -4.057200 -0.993600 -2.735300 N 1 XO 0.000000
3 C -4.931200 -0.416600 -1.818300 C 2 XO 0.000000
4 C -6.328000 -0.411800 -1.741100 C 3 XO 0.000000
5 C -6.890500 0.273200 -0.662500 C 4 XO 0.000000
6 C -6.088800 0.929300 0.299300 C 5 XO 0.000000
7 C -4.696500 0.926300 0.215100 C 6 XO 0.000000
8 C -4.115800 0.240500 -0.861700 C 7 XO 0.000000
9 N -2.785900 0.066500 -1.216700 N 8 XO 0.000000
10 C -2.788900 -0.675900 -2.325900 C 9 XO 0.000000
11 C -1.524300 -1.097900 -2.983100 C 10 XO 0.000000
12 S -0.578100 -2.418000 -2.063200 S 11 XO 0.000000
13 C 0.129800 -1.551000 -0.689600 C 12 XO 0.000000
14 N -0.378300 -0.385600 -0.223600 N 13 XO 1.000000
15 C 0.242000 0.252800 0.805500 C 14 XO 0.000000
16 C 1.360000 -0.273600 1.412200 C 15 XO 0.000000
17 C 1.767900 -1.543300 0.908000 C 16 XO 0.000000
18 N 1.182800 -2.143500 -0.134000 N 17 XO 0.000000
19 O 2.788400 -2.154900 1.501900 O 18 XO 0.000000
20 C 2.076400 0.416500 2.547300 C 19 XO 0.000000
21 C 3.459800 0.910000 2.171300 C 20 XO 0.000000
22 C 4.618200 0.403900 2.762700 C 21 XO 0.000000
23 N 5.853000 0.837200 2.451300 N 22 XO 0.000000
24 C 5.914800 1.799800 1.523300 C 23 XO 0.000000
25 N 4.879000 2.377600 0.884900 N 24 XO 0.000000
26 C 3.666700 1.921100 1.220000 C 25 XO 0.000000
27 O 7.115500 2.286200 1.147800 O 26 XO 0.000000
28 C 8.293200 1.724800 1.783000 C 27 XO 0.000000
29 H -5.173300 -1.192400 -4.503600 H 28 XO 0.000000
30 H -4.958900 -2.706600 -3.564300 H 29 XO 0.000000
31 H -3.603400 -2.030300 -4.506900 H 30 XO 0.000000
32 H -6.951300 -0.916900 -2.479400 H 31 XO 0.000000
33 H -7.976100 0.301700 -0.559100 H 32 XO 0.000000
34 H -6.573400 1.450900 1.125900 H 33 XO 0.000000
35 H -4.079900 1.436300 0.956400 H 34 XO 0.000000
36 H -1.685500 -1.555100 -3.964900 H 35 XO 0.000000
37 H -0.849700 -0.244100 -3.117500 H 36 XO 0.000000
38 H -1.374300 -0.033200 -0.577400 H 37 XO 0.000000
39 H -0.211200 1.191300 1.123700 H 38 XO 0.000000
40 H 2.956000 -3.012500 1.052600 H 39 XO 0.000000
41 H 2.164300 -0.279600 3.394700 H 40 XO 0.000000
42 H 1.457400 1.258600 2.889400 H 41 XO 0.000000
43 H 4.560200 -0.381100 3.522600 H 42 XO 0.000000
44 H 2.821500 2.389600 0.706100 H 43 XO 0.000000
45 H 9.135000 2.260100 1.333300 H 44 XO 0.000000
46 H 8.367700 0.649300 1.577500 H 45 XO 0.000000
47 H 8.265000 1.893400 2.867100 H 46 XO 0.000000

@<TRIPOS>BOND
1 1 2 1
2 2 3 ar
3 2 10 ar
4 3 4 ar
5 3 8 ar
6 4 5 ar
7 5 6 ar
8 6 7 ar
9 7 8 ar
10 8 9 ar
11 9 10 ar
12 10 11 1
13 11 12 1
14 12 13 1
15 13 14 2
16 13 18 1
17 14 15 1
18 15 16 2
19 16 17 1
20 16 20 1
21 17 18 2
22 17 19 1
23 20 21 1
24 21 22 ar
25 21 26 ar
26 22 23 ar
27 23 24 ar
28 24 25 ar
29 24 27 1
30 25 26 ar
31 27 28 1
32 1 29 1
33 1 30 1
34 1 31 1
35 4 32 1
36 5 33 1
37 6 34 1
38 7 35 1
39 11 36 1
40 11 37 1
41 14 38 1
42 15 39 1
43 19 40 1
44 20 41 1
45 20 42 1
46 22 43 1
47 26 44 1
48 28 45 1
49 28 46 1
50 28 47 1

@<COSMOlogic>TOTAL_CHARGE
1.0
