# Created by COSMOvis on Mon Aug 09 22:24:22 CEST 2021
#
#

#
#

@<TRIPOS>MOLECULE
SAMPL8-21_micro007_c0
39 40
SMALL
USER_CHARGES

@<TRIPOS>ATOM
1 C 3.461600 -3.856800 -1.228000 C 0 XO 0.000000
2 O 3.882900 -2.523700 -0.886200 O 1 XO 0.000000
3 C 2.908300 -1.629600 -0.512900 C 2 XO 0.000000
4 C 1.536600 -1.921100 -0.432200 C 3 XO 0.000000
5 C 0.613100 -0.934300 -0.054400 C 4 XO 0.000000
6 C 1.066700 0.356800 0.251500 C 5 XO 0.000000
7 C 2.433300 0.648200 0.177700 C 6 XO 0.000000
8 C 3.364100 -0.337700 -0.197700 C 7 XO 0.000000
9 O 4.707500 -0.048600 -0.277200 O 8 XO 0.000000
10 O 3.012200 1.870300 0.445000 O 9 XO 0.000000
11 C 2.151500 2.943300 0.868400 C 10 XO 0.000000
12 C -0.865200 -1.293900 0.084900 C 11 XO 0.000000
13 C -1.841600 -0.215700 -0.308600 C 12 XO 0.000000
14 C -2.064400 0.133500 -1.718600 C 13 XO 0.000000
15 N -1.406200 -0.442900 -2.715000 N 14 XO -1.000000
16 N -3.003100 1.089400 -2.055400 N 15 XO 0.000000
17 C -3.716200 1.732600 -1.108700 C 16 XO 0.000000
18 N -4.627900 2.668100 -1.309200 N 17 XO 0.000000
19 N -3.497300 1.405500 0.252100 N 18 XO 0.000000
20 C -2.581500 0.460400 0.629200 C 19 XO 0.000000
21 O -2.417200 0.202400 1.956500 O 20 XO 0.000000
22 C -3.315900 0.809600 2.912400 C 21 XO 0.000000
23 H 2.976000 -4.352900 -0.373600 H 22 XO 0.000000
24 H 2.776900 -3.849400 -2.090200 H 23 XO 0.000000
25 H 4.378200 -4.394500 -1.492400 H 24 XO 0.000000
26 H 1.177700 -2.921700 -0.673800 H 25 XO 0.000000
27 H 0.345000 1.124700 0.528100 H 26 XO 0.000000
28 H 4.809400 0.893100 -0.025700 H 27 XO 0.000000
29 H 2.809500 3.802500 1.033500 H 28 XO 0.000000
30 H 1.635400 2.685900 1.805800 H 29 XO 0.000000
31 H 1.413700 3.186500 0.089100 H 30 XO 0.000000
32 H -1.053500 -2.202200 -0.514500 H 31 XO 0.000000
33 H -1.056300 -1.580900 1.131300 H 32 XO 0.000000
34 H -0.724600 -1.105700 -2.327500 H 33 XO 0.000000
35 H -4.689600 2.815000 -2.324000 H 34 XO 0.000000
36 H -4.021200 1.941700 0.938600 H 35 XO 0.000000
37 H -3.012000 0.408900 3.884100 H 36 XO 0.000000
38 H -4.360200 0.528900 2.711300 H 37 XO 0.000000
39 H -3.205700 1.904300 2.926200 H 38 XO 0.000000

@<TRIPOS>BOND
1 1 2 1
2 2 3 1
3 3 4 ar
4 3 8 ar
5 4 5 ar
6 5 6 ar
7 5 12 1
8 6 7 ar
9 7 8 ar
10 7 10 1
11 8 9 1
12 10 11 1
13 12 13 1
14 13 14 1
15 13 20 2
16 14 15 1
17 14 16 2
18 16 17 1
19 17 18 2
20 17 19 1
21 19 20 1
22 20 21 1
23 21 22 1
24 1 23 1
25 1 24 1
26 1 25 1
27 4 26 1
28 6 27 1
29 9 28 1
30 11 29 1
31 11 30 1
32 11 31 1
33 12 32 1
34 12 33 1
35 15 34 1
36 18 35 1
37 19 36 1
38 22 37 1
39 22 38 1
40 22 39 1

@<COSMOlogic>TOTAL_CHARGE
-1.0
