# Created by COSMOvis on Mon Aug 09 22:24:21 CEST 2021
#
#

#
#

@<TRIPOS>MOLECULE
SAMPL8-16_extra002_c0
35 36
SMALL
USER_CHARGES

@<TRIPOS>ATOM
1 C 1.595200 1.461400 1.771200 C 0 XO 0.000000
2 C 2.077000 0.272500 1.181800 C 1 XO 0.000000
3 C 1.584600 1.643600 3.155200 C 2 XO 0.000000
4 C 2.566600 -0.783100 1.953500 C 3 XO 0.000000
5 C 2.073800 0.589500 3.932000 C 4 XO 0.000000
6 C 2.555300 -0.601700 3.338000 C 5 XO 0.000000
7 C 2.744000 -0.783200 5.563900 C 6 XO 0.000000
8 C 1.317400 -0.171700 8.165500 C 7 XO 0.000000
9 C -1.295600 1.392200 8.360200 C 8 XO 0.000000
10 C -1.533600 0.097500 10.500900 C 9 XO 0.000000
11 C 0.268500 1.839400 10.317000 C 10 XO 0.000000
12 C 2.995200 -1.292900 6.950300 C 11 XO 0.000000
13 C -0.546600 0.788500 9.553600 C 12 XO 0.000000
14 N 2.222700 0.427600 5.305300 N 13 XO 1.000000
15 N 2.953700 -1.421300 4.393600 N 14 XO 0.000000
16 N 1.795300 -1.347400 7.788900 N 15 XO 0.000000
17 O 1.657500 1.000900 7.785400 O 16 XO -1.000000
18 O 0.317000 -0.331800 9.120200 O 17 XO 0.000000
19 H 1.223000 2.259600 1.127800 H 18 XO 0.000000
20 H 2.066900 0.175600 0.095600 H 19 XO 0.000000
21 H 1.215700 2.563100 3.609000 H 20 XO 0.000000
22 H 2.938500 -1.701700 1.500100 H 21 XO 0.000000
23 H -1.842500 0.608200 7.815500 H 22 XO 0.000000
24 H -2.027100 2.131000 8.719600 H 23 XO 0.000000
25 H -0.603900 1.889800 7.670600 H 24 XO 0.000000
26 H -1.001400 -0.376800 11.338000 H 25 XO 0.000000
27 H -2.108400 -0.673600 9.968100 H 26 XO 0.000000
28 H -2.238400 0.834300 10.911900 H 27 XO 0.000000
29 H 0.984400 2.337600 9.653900 H 28 XO 0.000000
30 H -0.409900 2.593600 10.743400 H 29 XO 0.000000
31 H 0.817100 1.367200 11.145500 H 30 XO 0.000000
32 H 3.414100 -2.304900 6.862800 H 31 XO 0.000000
33 H 3.786500 -0.650200 7.387200 H 32 XO 0.000000
34 H 3.349500 -2.355600 4.311300 H 33 XO 0.000000
35 H 1.936600 0.992800 6.159300 H 34 XO 0.000000

@<TRIPOS>BOND
1 1 2 ar
2 1 3 ar
3 2 4 ar
4 3 5 ar
5 4 6 ar
6 5 6 ar
7 5 14 1
8 6 15 1
9 7 12 1
10 7 14 2
11 7 15 1
12 8 16 2
13 8 17 1
14 8 18 1
15 9 13 1
16 10 13 1
17 11 13 1
18 12 16 1
19 13 18 1
20 1 19 1
21 2 20 1
22 3 21 1
23 4 22 1
24 9 23 1
25 9 24 1
26 9 25 1
27 10 26 1
28 10 27 1
29 10 28 1
30 11 29 1
31 11 30 1
32 11 31 1
33 12 32 1
34 12 33 1
35 14 35 1
36 15 34 1

@<COSMOlogic>TOTAL_CHARGE
0.0
