# Created by COSMOvis on Mon Aug 09 22:24:20 CEST 2021
#
#

#
#

@<TRIPOS>MOLECULE
SAMPL8-13_micro001_c0
50 53
SMALL
USER_CHARGES

@<TRIPOS>ATOM
1 C -4.143800 -0.819800 0.934100 C 0 XO 0.000000
2 C -3.889000 -2.044900 1.559700 C 1 XO 0.000000
3 C -3.697300 -0.599000 -0.369100 C 2 XO 0.000000
4 C 4.618000 -0.822300 2.194100 C 3 XO 0.000000
5 C 4.141000 -0.014200 3.222300 C 4 XO 0.000000
6 C -3.189100 -3.044100 0.879200 C 5 XO 0.000000
7 C 2.252600 0.804400 1.854200 C 6 XO 0.000000
8 C 0.035100 -0.409400 -1.511200 C 7 XO 0.000000
9 C 3.108500 -1.142700 -1.055900 C 8 XO 0.000000
10 C -2.985500 -1.582600 -1.077600 C 9 XO 0.000000
11 C 3.896600 -0.802400 0.998800 C 10 XO 0.000000
12 C 2.746400 -0.003100 0.832700 C 11 XO 0.000000
13 C -0.928200 0.444600 -2.127600 C 12 XO 0.000000
14 C 2.986800 0.773400 3.036900 C 13 XO 0.000000
15 C -2.749200 -2.800800 -0.423700 C 14 XO 0.000000
16 C -0.545300 1.785000 -2.144400 C 15 XO 0.000000
17 C 1.128500 0.304700 -1.088100 C 16 XO 0.000000
18 C -1.220200 2.999000 -2.645200 C 17 XO 0.000000
19 C -3.676100 -1.528700 -3.513900 C 18 XO 0.000000
20 C 3.407100 3.285900 4.380900 C 19 XO 0.000000
21 C -2.549600 -1.326300 -2.509900 C 20 XO 0.000000
22 N 4.068500 -1.487000 -0.198500 N 21 XO 1.000000
23 N 2.280800 -0.248100 -0.473700 N 22 XO 0.000000
24 N -2.425600 2.821100 -3.234900 N 23 XO 0.000000
25 O -0.679600 4.118100 -2.515500 O 24 XO 0.000000
26 O 2.697600 1.042400 5.698500 O 25 XO 0.000000
27 O 0.966000 2.161600 4.140300 O 26 XO 0.000000
28 O -2.112700 0.066300 -2.675000 O 27 XO 0.000000
29 S 1.033300 2.015700 -1.421500 S 28 XO 0.000000
30 S 2.389800 1.788700 4.433400 S 29 XO 0.000000
31 Cl -1.867900 -4.105200 -1.253300 Cl 30 XO 0.000000
32 H -4.691100 -0.036800 1.460400 H 31 XO 0.000000
33 H -4.232700 -2.229700 2.578400 H 32 XO 0.000000
34 H -3.892700 0.358100 -0.855500 H 33 XO 0.000000
35 H 5.502400 -1.444500 2.321100 H 34 XO 0.000000
36 H 4.657200 -0.003900 4.182000 H 35 XO 0.000000
37 H -2.983400 -4.003600 1.353900 H 36 XO 0.000000
38 H 1.352300 1.408600 1.750000 H 37 XO 0.000000
39 H -0.062000 -1.484100 -1.375100 H 38 XO 0.000000
40 H 3.008300 -1.512600 -2.070700 H 39 XO 0.000000
41 H -3.315700 -1.344500 -4.534600 H 40 XO 0.000000
42 H -4.516000 -0.855000 -3.294900 H 41 XO 0.000000
43 H -4.037700 -2.564000 -3.452300 H 42 XO 0.000000
44 H 3.060800 3.914400 5.210200 H 43 XO 0.000000
45 H 4.454500 2.994800 4.514700 H 44 XO 0.000000
46 H 3.243500 3.776400 3.415100 H 45 XO 0.000000
47 H -1.703100 -1.975800 -2.773600 H 46 XO 0.000000
48 H -2.832200 1.893900 -3.339800 H 47 XO 0.000000
49 H -2.922600 3.628800 -3.600800 H 48 XO 0.000000
50 H 4.812500 -2.151000 -0.414000 H 49 XO 0.000000

@<TRIPOS>BOND
1 1 2 ar
2 1 3 ar
3 2 6 ar
4 3 10 ar
5 4 5 ar
6 4 11 ar
7 5 14 ar
8 6 15 ar
9 7 12 ar
10 7 14 ar
11 8 13 ar
12 8 17 ar
13 9 22 2
14 9 23 1
15 10 15 ar
16 10 21 1
17 11 12 ar
18 11 22 1
19 12 23 1
20 13 16 ar
21 13 28 1
22 14 30 1
23 15 31 1
24 16 18 1
25 16 29 ar
26 17 23 1
27 17 29 ar
28 18 24 1
29 18 25 2
30 19 21 1
31 20 30 1
32 21 28 1
33 26 30 2
34 27 30 2
35 1 32 1
36 2 33 1
37 3 34 1
38 4 35 1
39 5 36 1
40 6 37 1
41 7 38 1
42 8 39 1
43 9 40 1
44 19 41 1
45 19 42 1
46 19 43 1
47 20 44 1
48 20 45 1
49 20 46 1
50 21 47 1
51 22 50 1
52 24 48 1
53 24 49 1

@<COSMOlogic>TOTAL_CHARGE
1.0
