# Created by COSMOvis on Mon Aug 09 22:24:22 CEST 2021
#
#

#
#

@<TRIPOS>MOLECULE
SAMPL8-20_micro026_c0
27 29
SMALL
USER_CHARGES

@<TRIPOS>ATOM
1 C -4.726800 0.423000 -0.332900 C 0 XO 0.000000
2 C -3.915200 0.298300 -1.467000 C 1 XO 0.000000
3 C -4.151800 0.373600 0.942500 C 2 XO 0.000000
4 C -2.536100 0.125100 -1.326100 C 3 XO 0.000000
5 C -2.775300 0.181900 1.087700 C 4 XO 0.000000
6 C 1.548400 -1.152800 0.988100 C 5 XO 0.000000
7 C 2.293300 -0.248300 0.216100 C 6 XO 0.000000
8 C -1.954400 0.054100 -0.047100 C 7 XO 0.000000
9 C 0.168200 -1.058500 0.894100 C 8 XO 0.000000
10 C -0.477900 -0.083000 0.063800 C 9 XO 0.000000
11 C 1.568500 0.661700 -0.603700 C 10 XO 0.000000
12 C 3.642600 0.078200 -0.063300 C 11 XO 0.000000
13 N 0.241000 0.763500 -0.694400 N 12 XO 0.000000
14 N 3.762500 1.061800 -0.942000 N 13 XO 0.000000
15 N 2.499000 1.415000 -1.269200 N 14 XO 0.000000
16 N 4.858600 -0.511700 0.473000 N 15 XO 1.000000
17 Cl -0.782500 -2.250300 1.786900 Cl 16 XO 0.000000
18 H -5.803500 0.564100 -0.442800 H 17 XO 0.000000
19 H -4.356800 0.337100 -2.464400 H 18 XO 0.000000
20 H -4.776700 0.487200 1.829900 H 19 XO 0.000000
21 H -1.901100 0.035200 -2.208700 H 20 XO 0.000000
22 H -2.337000 0.157400 2.085700 H 21 XO 0.000000
23 H 2.016500 -1.908100 1.617900 H 22 XO 0.000000
24 H 2.341200 2.165700 -1.938000 H 23 XO 0.000000
25 H 4.930900 -0.408500 1.497000 H 24 XO 0.000000
26 H 5.683200 -0.045000 0.063200 H 25 XO 0.000000
27 H 4.941200 -1.516500 0.253600 H 26 XO 0.000000

@<TRIPOS>BOND
1 1 2 ar
2 1 3 ar
3 2 4 ar
4 3 5 ar
5 4 8 ar
6 5 8 ar
7 6 7 ar
8 6 9 ar
9 7 11 ar
10 7 12 ar
11 8 10 1
12 9 10 ar
13 9 17 1
14 10 13 ar
15 11 13 ar
16 11 15 ar
17 12 14 ar
18 12 16 1
19 14 15 ar
20 1 18 1
21 2 19 1
22 3 20 1
23 4 21 1
24 5 22 1
25 6 23 1
26 15 24 1
27 16 25 1
28 16 26 1
29 16 27 1

@<COSMOlogic>TOTAL_CHARGE
1.0
