# Created by COSMOvis on Mon Aug 09 22:24:21 CEST 2021
#
#

#
#

@<TRIPOS>MOLECULE
SAMPL8-17_micro002_c0
39 41
SMALL
USER_CHARGES

@<TRIPOS>ATOM
1 C -0.764700 2.955100 -3.452300 C 0 XO 0.000000
2 C 0.143500 2.195100 -4.199500 C 1 XO 0.000000
3 C -0.685400 0.096300 -3.211600 C 2 XO 0.000000
4 C -1.620000 2.269800 -2.596200 C 3 XO 0.000000
5 C -1.576200 0.867000 -2.467600 C 4 XO 0.000000
6 C 0.163200 0.799400 -4.072600 C 5 XO 0.000000
7 C -3.202600 1.646300 -1.129000 C 6 XO 0.000000
8 C -2.986900 -2.944300 0.141000 C 7 XO 0.000000
9 C -0.849000 -1.641000 -0.077600 C 8 XO 0.000000
10 C -2.255200 -3.824600 1.154400 C 9 XO 0.000000
11 C -0.242800 -2.598000 0.952000 C 10 XO 0.000000
12 C -2.386400 -1.516600 0.051900 C 11 XO 0.000000
13 C -3.001400 -0.865700 -1.215200 C 12 XO 0.000000
14 C -2.723300 -0.694100 1.306200 C 13 XO 0.000000
15 N -2.633800 2.710400 -1.748100 N 14 XO 0.000000
16 N -2.563700 0.504600 -1.533800 N 15 XO 0.000000
17 N -4.251400 1.688500 -0.311000 N 16 XO 1.000000
18 O -0.843700 -3.903400 0.880800 O 17 XO 0.000000
19 O -4.158600 -0.503900 1.392600 O 18 XO 0.000000
20 Br 1.420000 -0.205500 -5.132600 Br 19 XO 0.000000
21 H -0.798200 4.039800 -3.548300 H 20 XO 0.000000
22 H 0.829500 2.693900 -4.882200 H 21 XO 0.000000
23 H -0.649000 -0.988200 -3.137400 H 22 XO 0.000000
24 H -2.920500 -3.423500 -0.849200 H 23 XO 0.000000
25 H -4.053200 -2.889300 0.408200 H 24 XO 0.000000
26 H -0.363600 -0.656000 0.013400 H 25 XO 0.000000
27 H -0.611600 -2.033300 -1.078600 H 26 XO 0.000000
28 H -2.405700 -3.454800 2.186800 H 27 XO 0.000000
29 H -2.633300 -4.854300 1.107900 H 28 XO 0.000000
30 H 0.827000 -2.742300 0.752000 H 29 XO 0.000000
31 H -0.345300 -2.202100 1.980100 H 30 XO 0.000000
32 H -4.097200 -0.847000 -1.133400 H 31 XO 0.000000
33 H -2.758200 -1.481900 -2.090700 H 32 XO 0.000000
34 H -2.216800 0.286100 1.261700 H 33 XO 0.000000
35 H -2.369900 -1.206500 2.211100 H 34 XO 0.000000
36 H -4.613600 2.598500 -0.037900 H 35 XO 0.000000
37 H -4.375100 -0.254300 2.309700 H 36 XO 0.000000
38 H -2.908200 3.677400 -1.591700 H 37 XO 0.000000
39 H -4.420100 0.894200 0.342800 H 38 XO 0.000000

@<TRIPOS>BOND
1 1 2 ar
2 1 4 ar
3 2 6 ar
4 3 5 ar
5 3 6 ar
6 4 5 ar
7 4 15 1
8 5 16 1
9 6 20 1
10 7 15 1
11 7 16 1
12 7 17 2
13 8 10 1
14 8 12 1
15 9 11 1
16 9 12 1
17 10 18 1
18 11 18 1
19 12 13 1
20 12 14 1
21 13 16 1
22 14 19 1
23 1 21 1
24 2 22 1
25 3 23 1
26 8 24 1
27 8 25 1
28 9 26 1
29 9 27 1
30 10 28 1
31 10 29 1
32 11 30 1
33 11 31 1
34 13 32 1
35 13 33 1
36 14 34 1
37 14 35 1
38 15 38 1
39 17 36 1
40 17 39 1
41 19 37 1

@<COSMOlogic>TOTAL_CHARGE
1.0
