# Created by COSMOvis on Mon Aug 09 22:24:20 CEST 2021
#
#

#
#

@<TRIPOS>MOLECULE
SAMPL8-12_micro000_c0
41 43
SMALL
USER_CHARGES

@<TRIPOS>ATOM
1 C 4.172000 -2.648400 -3.515700 C 0 XO 0.000000
2 C 2.684100 -0.796500 -3.889900 C 1 XO 0.000000
3 C 3.359600 -3.086200 -2.462400 C 2 XO 0.000000
4 C 1.874500 -1.231500 -2.838800 C 3 XO 0.000000
5 C 2.534600 -1.287300 0.597900 C 4 XO 0.000000
6 C 3.852900 -1.493900 -4.246400 C 5 XO 0.000000
7 C 2.200200 -2.384600 -2.103900 C 6 XO 0.000000
8 C 1.390700 -2.020400 0.293400 C 7 XO 0.000000
9 C 0.300300 -1.825800 1.196600 C 8 XO 0.000000
10 C 1.527800 -0.237300 2.342300 C 9 XO 0.000000
11 C -2.063800 -2.015400 1.836000 C 10 XO 0.000000
12 C -0.934300 -3.969200 0.947400 C 11 XO 0.000000
13 C -3.348500 -2.522100 1.187900 C 12 XO 0.000000
14 C -2.252100 -4.423700 0.331700 C 13 XO 0.000000
15 C 4.741100 -1.001800 -5.363500 C 14 XO 0.000000
16 C 1.311100 -2.862400 -0.971600 C 15 XO 0.000000
17 N 2.653300 -0.410600 1.614300 N 16 XO 0.000000
18 N 0.374400 -0.917200 2.190000 N 17 XO 0.000000
19 N -0.909600 -2.498000 1.061900 N 18 XO 0.000000
20 N 1.550000 0.739400 3.307100 N 19 XO 0.000000
21 O -3.378100 -3.959200 1.096500 O 20 XO 0.000000
22 H 5.067400 -3.219100 -3.775300 H 21 XO 0.000000
23 H 2.401100 0.098400 -4.450500 H 22 XO 0.000000
24 H 3.630700 -3.993000 -1.915100 H 23 XO 0.000000
25 H 0.970300 -0.669900 -2.588900 H 24 XO 0.000000
26 H 3.417100 -1.387800 -0.040500 H 25 XO 0.000000
27 H -2.061400 -0.919200 1.842500 H 26 XO 0.000000
28 H -2.007500 -2.360200 2.885500 H 27 XO 0.000000
29 H -0.828800 -4.413500 1.956200 H 28 XO 0.000000
30 H -0.101700 -4.329000 0.336800 H 29 XO 0.000000
31 H -4.215900 -2.231400 1.794800 H 30 XO 0.000000
32 H -3.454800 -2.086300 0.176500 H 31 XO 0.000000
33 H -2.330300 -4.052300 -0.707800 H 32 XO 0.000000
34 H -2.308300 -5.519900 0.325600 H 33 XO 0.000000
35 H 5.406000 -0.195600 -5.012600 H 34 XO 0.000000
36 H 5.378600 -1.807400 -5.752900 H 35 XO 0.000000
37 H 4.150500 -0.593100 -6.196100 H 36 XO 0.000000
38 H 0.263800 -2.858400 -1.316100 H 37 XO 0.000000
39 H 1.561500 -3.915000 -0.757500 H 38 XO 0.000000
40 H 2.465800 1.056600 3.612800 H 39 XO 0.000000
41 H 0.837000 0.687700 4.029100 H 40 XO 0.000000

@<TRIPOS>BOND
1 1 3 ar
2 1 6 ar
3 2 4 ar
4 2 6 ar
5 3 7 ar
6 4 7 ar
7 5 8 ar
8 5 17 ar
9 6 15 1
10 7 16 1
11 8 9 ar
12 8 16 1
13 9 18 ar
14 9 19 1
15 10 17 ar
16 10 18 ar
17 10 20 1
18 11 13 1
19 11 19 1
20 12 14 1
21 12 19 1
22 13 21 1
23 14 21 1
24 1 22 1
25 2 23 1
26 3 24 1
27 4 25 1
28 5 26 1
29 11 27 1
30 11 28 1
31 12 29 1
32 12 30 1
33 13 31 1
34 13 32 1
35 14 33 1
36 14 34 1
37 15 35 1
38 15 36 1
39 15 37 1
40 16 38 1
41 16 39 1
42 20 40 1
43 20 41 1

@<COSMOlogic>TOTAL_CHARGE
0.0
