# Created by COSMOvis on Mon Aug 09 22:24:22 CEST 2021
#
#

#
#

@<TRIPOS>MOLECULE
SAMPL8-19_micro015_c0
46 49
SMALL
USER_CHARGES

@<TRIPOS>ATOM
1 C 3.183200 -2.622500 0.853000 C 0 XO 0.000000
2 N 2.000400 -2.057100 0.211500 N 1 XO 0.000000
3 C 1.457700 -0.812700 0.493400 C 2 XO 0.000000
4 C 1.844100 0.201100 1.378100 C 3 XO 0.000000
5 C 1.052900 1.353100 1.395300 C 4 XO 0.000000
6 C -0.080300 1.485900 0.560500 C 5 XO 0.000000
7 C -0.460200 0.470500 -0.319400 C 6 XO 0.000000
8 C 0.320200 -0.696500 -0.351200 C 7 XO 0.000000
9 N 0.180900 -1.846700 -1.116600 N 8 XO 0.000000
10 C 1.194100 -2.630000 -0.756100 C 9 XO 0.000000
11 C 1.423400 -3.982400 -1.329300 C 10 XO 0.000000
12 S 0.791000 -5.339200 -0.218400 S 11 XO 0.000000
13 C 2.259300 -6.329100 0.062800 C 12 XO 0.000000
14 N 3.428400 -5.983900 -0.473700 N 13 XO 0.000000
15 C 4.461000 -6.815500 -0.204700 C 14 XO 0.000000
16 C 4.353400 -7.963600 0.570600 C 15 XO 0.000000
17 C 3.057500 -8.195400 1.093500 C 16 XO 0.000000
18 N 2.017800 -7.396700 0.845100 N 17 XO 0.000000
19 O 2.863200 -9.266900 1.883200 O 18 XO 0.000000
20 C 5.521400 -8.879300 0.849000 C 19 XO 0.000000
21 C 5.420300 -10.224900 0.157900 C 20 XO 0.000000
22 C 5.363800 -11.427000 0.864500 C 21 XO 0.000000
23 N 5.286700 -12.631400 0.267800 N 22 XO 0.000000
24 C 5.266800 -12.616600 -1.069700 C 23 XO 0.000000
25 N 5.318600 -11.533800 -1.868700 N 24 XO 0.000000
26 C 5.393300 -10.354600 -1.239400 C 25 XO 0.000000
27 O 5.189500 -13.781500 -1.748400 O 26 XO 0.000000
28 C 5.135400 -15.004800 -0.971100 C 27 XO 0.000000
29 H 2.976900 -2.845600 1.909100 H 28 XO 0.000000
30 H 4.016200 -1.910300 0.788300 H 29 XO 0.000000
31 H 3.471600 -3.547600 0.342400 H 30 XO 0.000000
32 H 2.716500 0.104700 2.025700 H 31 XO 0.000000
33 H 1.316400 2.169200 2.070100 H 32 XO 0.000000
34 H -0.668700 2.403800 0.607600 H 33 XO 0.000000
35 H -1.334900 0.574000 -0.963800 H 34 XO 0.000000
36 H 0.880500 -4.063200 -2.276200 H 35 XO 0.000000
37 H 2.484900 -4.214000 -1.492900 H 36 XO 0.000000
38 H 5.426100 -6.535400 -0.636100 H 37 XO 0.000000
39 H 1.921200 -9.276700 2.158300 H 38 XO 0.000000
40 H 5.610800 -9.046300 1.933100 H 39 XO 0.000000
41 H 6.443900 -8.370100 0.530200 H 40 XO 0.000000
42 H 5.382700 -11.432700 1.958400 H 41 XO 0.000000
43 H 5.436100 -9.471600 -1.884200 H 42 XO 0.000000
44 H 4.245500 -15.016500 -0.328700 H 43 XO 0.000000
45 H 6.037200 -15.112200 -0.354800 H 44 XO 0.000000
46 H 5.081400 -15.806300 -1.714300 H 45 XO 0.000000

@<TRIPOS>BOND
1 1 2 1
2 2 3 ar
3 2 10 ar
4 3 4 ar
5 3 8 ar
6 4 5 ar
7 5 6 ar
8 6 7 ar
9 7 8 ar
10 8 9 ar
11 9 10 ar
12 10 11 1
13 11 12 1
14 12 13 1
15 13 14 ar
16 13 18 ar
17 14 15 ar
18 15 16 ar
19 16 17 ar
20 16 20 1
21 17 18 ar
22 17 19 1
23 20 21 1
24 21 22 ar
25 21 26 ar
26 22 23 ar
27 23 24 ar
28 24 25 ar
29 24 27 1
30 25 26 ar
31 27 28 1
32 1 29 1
33 1 30 1
34 1 31 1
35 4 32 1
36 5 33 1
37 6 34 1
38 7 35 1
39 11 36 1
40 11 37 1
41 15 38 1
42 19 39 1
43 20 40 1
44 20 41 1
45 22 42 1
46 26 43 1
47 28 44 1
48 28 45 1
49 28 46 1

@<COSMOlogic>TOTAL_CHARGE
0.0
