# Created by COSMOvis on Mon Aug 09 22:24:21 CEST 2021
#
#

#
#

@<TRIPOS>MOLECULE
SAMPL8-19_micro008_c0
47 50
SMALL
USER_CHARGES

@<TRIPOS>ATOM
1 C 3.880400 -3.541400 -3.876800 C 0 XO 0.000000
2 N 3.179400 -3.695500 -2.600700 N 1 XO 0.000000
3 C 3.508900 -4.655600 -1.637200 C 2 XO 0.000000
4 C 4.499600 -5.640800 -1.616400 C 3 XO 0.000000
5 C 4.554200 -6.442800 -0.476100 C 4 XO 0.000000
6 C 3.654800 -6.269500 0.598800 C 5 XO 0.000000
7 C 2.664000 -5.288400 0.577100 C 6 XO 0.000000
8 C 2.609300 -4.481700 -0.562500 C 7 XO 0.000000
9 N 1.772700 -3.439100 -0.929200 N 8 XO 1.000000
10 C 2.131000 -2.975700 -2.139900 C 9 XO 0.000000
11 C 1.428600 -1.847600 -2.798100 C 10 XO 0.000000
12 S 1.756500 -0.197700 -2.015700 S 11 XO 0.000000
13 C 0.672000 -0.208000 -0.587700 C 12 XO 0.000000
14 N 0.129400 -1.342300 -0.131600 N 13 XO 0.000000
15 C -0.698000 -1.210000 0.935700 C 14 XO 0.000000
16 C -0.963700 -0.001500 1.561800 C 15 XO 0.000000
17 C -0.277300 1.109200 1.009000 C 16 XO 0.000000
18 N 0.513000 1.014800 -0.063300 N 17 XO 0.000000
19 O -0.429200 2.310000 1.585300 O 18 XO 0.000000
20 C -1.877100 0.119300 2.758000 C 19 XO 0.000000
21 C -3.158200 0.877700 2.475100 C 20 XO 0.000000
22 C -3.473100 2.075900 3.117200 C 21 XO 0.000000
23 N -4.611700 2.756800 2.890800 N 22 XO 0.000000
24 C -5.446200 2.212900 1.997800 C 23 XO 0.000000
25 N -5.266900 1.066300 1.314700 N 24 XO 0.000000
26 C -4.122800 0.418000 1.565100 C 25 XO 0.000000
27 O -6.610600 2.832900 1.711000 O 26 XO 0.000000
28 C -6.893500 4.076000 2.403200 C 27 XO 0.000000
29 H 4.924500 -3.265600 -3.686900 H 28 XO 0.000000
30 H 3.402300 -2.757900 -4.469900 H 29 XO 0.000000
31 H 3.835300 -4.486800 -4.429700 H 30 XO 0.000000
32 H 5.196100 -5.778500 -2.442900 H 31 XO 0.000000
33 H 5.312200 -7.224200 -0.413400 H 32 XO 0.000000
34 H 3.736300 -6.921800 1.469000 H 33 XO 0.000000
35 H 1.968300 -5.156300 1.405300 H 34 XO 0.000000
36 H 1.033300 -2.915500 -0.400700 H 35 XO 0.000000
37 H 1.747300 -1.724300 -3.837900 H 36 XO 0.000000
38 H 0.345200 -2.018500 -2.790700 H 37 XO 0.000000
39 H -1.150000 -2.133000 1.306100 H 38 XO 0.000000
40 H 0.107800 2.963700 1.087300 H 39 XO 0.000000
41 H -1.342400 0.624200 3.577000 H 40 XO 0.000000
42 H -2.117300 -0.894100 3.113900 H 41 XO 0.000000
43 H -2.787700 2.514100 3.848800 H 42 XO 0.000000
44 H -3.972800 -0.515200 1.013400 H 43 XO 0.000000
45 H -6.130900 4.830400 2.171100 H 44 XO 0.000000
46 H -6.935000 3.914100 3.488000 H 45 XO 0.000000
47 H -7.871100 4.390400 2.025100 H 46 XO 0.000000

@<TRIPOS>BOND
1 1 2 1
2 2 3 1
3 2 10 1
4 3 4 ar
5 3 8 ar
6 4 5 ar
7 5 6 ar
8 6 7 ar
9 7 8 ar
10 8 9 1
11 9 10 2
12 10 11 1
13 11 12 1
14 12 13 1
15 13 14 ar
16 13 18 ar
17 14 15 ar
18 15 16 ar
19 16 17 ar
20 16 20 1
21 17 18 ar
22 17 19 1
23 20 21 1
24 21 22 ar
25 21 26 ar
26 22 23 ar
27 23 24 ar
28 24 25 ar
29 24 27 1
30 25 26 ar
31 27 28 1
32 1 29 1
33 1 30 1
34 1 31 1
35 4 32 1
36 5 33 1
37 6 34 1
38 7 35 1
39 9 36 1
40 11 37 1
41 11 38 1
42 15 39 1
43 19 40 1
44 20 41 1
45 20 42 1
46 22 43 1
47 26 44 1
48 28 45 1
49 28 46 1
50 28 47 1

@<COSMOlogic>TOTAL_CHARGE
1.0
