# Created by COSMOvis on Mon Aug 09 22:24:20 CEST 2021
#
#

#
#

@<TRIPOS>MOLECULE
SAMPL8-14_extra003_c0
44 45
SMALL
USER_CHARGES

@<TRIPOS>ATOM
1 C -1.128100 -2.678000 3.402400 C 0 XO 0.000000
2 C -0.536300 -1.624400 1.318600 C 1 XO 0.000000
3 C 2.106800 -4.225700 0.004200 C 2 XO 0.000000
4 C -0.267400 -2.592400 2.301100 C 3 XO 0.000000
5 C -2.228900 -1.820100 3.534100 C 4 XO 0.000000
6 C -1.617900 -0.736100 1.393300 C 5 XO 0.000000
7 C 1.002100 -4.278600 0.875900 C 6 XO 0.000000
8 C -2.463500 -0.859200 2.527900 C 7 XO 0.000000
9 C -0.012900 -5.103000 0.392200 C 8 XO 0.000000
10 C 1.120200 -5.649500 -1.494000 C 9 XO 0.000000
11 C -3.153200 -1.914300 4.723400 C 10 XO 0.000000
12 C -1.796900 1.742300 0.901700 C 11 XO 0.000000
13 C -3.249400 0.087400 -0.362600 C 12 XO 0.000000
14 C -0.806400 0.243100 -0.823900 C 13 XO 0.000000
15 C 0.942000 -3.512200 2.178300 C 14 XO 0.000000
16 C -1.865400 0.318700 0.294200 C 15 XO 0.000000
17 N 2.191300 -4.884900 -1.152300 N 16 XO 0.000000
18 N -0.007500 -5.777300 -0.741900 N 17 XO 0.000000
19 N -1.250800 -5.285700 1.186500 N 18 XO 1.000000
20 N 1.169100 -6.322400 -2.660200 N 19 XO 0.000000
21 O -3.540800 -0.010100 2.638300 O 20 XO 0.000000
22 H -0.936400 -3.414400 4.188100 H 21 XO 0.000000
23 H 0.137100 -1.560400 0.464400 H 22 XO 0.000000
24 H 2.968600 -3.606800 0.271600 H 23 XO 0.000000
25 H -3.184900 -0.972100 5.296300 H 24 XO 0.000000
26 H -4.187300 -2.155200 4.424200 H 25 XO 0.000000
27 H -2.820400 -2.702200 5.409900 H 26 XO 0.000000
28 H -1.963000 2.490000 0.110700 H 27 XO 0.000000
29 H -2.554900 1.890600 1.679900 H 28 XO 0.000000
30 H -0.804700 1.928200 1.340700 H 29 XO 0.000000
31 H -3.411700 0.835300 -1.154000 H 30 XO 0.000000
32 H -3.296500 -0.910700 -0.824200 H 31 XO 0.000000
33 H -4.065900 0.173200 0.364400 H 32 XO 0.000000
34 H -0.814700 -0.729900 -1.337600 H 33 XO 0.000000
35 H -1.028200 1.015400 -1.574700 H 34 XO 0.000000
36 H 0.210100 0.430500 -0.446300 H 35 XO 0.000000
37 H 1.871000 -2.927900 2.268800 H 36 XO 0.000000
38 H 0.946100 -4.215100 3.027800 H 37 XO 0.000000
39 H -2.032600 -5.549800 0.568100 H 38 XO 0.000000
40 H -1.506800 -4.417300 1.700200 H 39 XO 0.000000
41 H 0.402800 -6.925100 -2.938700 H 40 XO 0.000000
42 H 2.000800 -6.274500 -3.238200 H 41 XO 0.000000
43 H -4.022300 -0.208700 3.464600 H 42 XO 0.000000
44 H -1.146500 -6.042200 1.879900 H 43 XO 0.000000

@<TRIPOS>BOND
1 1 4 ar
2 1 5 ar
3 2 4 ar
4 2 6 ar
5 3 7 ar
6 3 17 ar
7 4 15 1
8 5 8 ar
9 5 11 1
10 6 8 ar
11 6 16 1
12 7 9 ar
13 7 15 1
14 8 21 1
15 9 18 ar
16 9 19 1
17 10 17 ar
18 10 18 ar
19 10 20 1
20 12 16 1
21 13 16 1
22 14 16 1
23 1 22 1
24 2 23 1
25 3 24 1
26 11 25 1
27 11 26 1
28 11 27 1
29 12 28 1
30 12 29 1
31 12 30 1
32 13 31 1
33 13 32 1
34 13 33 1
35 14 34 1
36 14 35 1
37 14 36 1
38 15 37 1
39 15 38 1
40 19 39 1
41 19 40 1
42 19 44 1
43 20 41 1
44 20 42 1
45 21 43 1

@<COSMOlogic>TOTAL_CHARGE
1.0
