# Created by COSMOvis on Mon Aug 09 22:24:22 CEST 2021
#
#

#
#

@<TRIPOS>MOLECULE
SAMPL8-21_micro018_c0
39 40
SMALL
USER_CHARGES

@<TRIPOS>ATOM
1 C 3.121500 0.357200 1.723300 C 0 XO 0.000000
2 O 2.168300 -0.590000 1.232100 O 1 XO 0.000000
3 C 0.973200 -0.086700 0.726700 C 2 XO 0.000000
4 C 0.675200 1.279700 0.669100 C 3 XO 0.000000
5 C -0.552800 1.726100 0.153400 C 4 XO 0.000000
6 C -1.474000 0.767800 -0.301900 C 5 XO 0.000000
7 C -1.177300 -0.600500 -0.242000 C 6 XO 0.000000
8 C 0.067300 -1.110300 0.269800 C 7 XO 0.000000
9 O 0.345000 -2.377000 0.326500 O 8 XO -1.000000
10 O -2.055800 -1.594900 -0.663900 O 9 XO 0.000000
11 C -3.326400 -1.173500 -1.169500 C 10 XO 0.000000
12 C -0.861600 3.215200 0.027100 C 11 XO 0.000000
13 C -0.498900 4.051300 1.230300 C 12 XO 0.000000
14 C -1.219500 3.860900 2.463100 C 13 XO 0.000000
15 N -2.180500 3.017900 2.740000 N 14 XO 0.000000
16 N -0.827500 4.720400 3.511500 N 15 XO 0.000000
17 C 0.156400 5.652500 3.390600 C 16 XO 0.000000
18 N 0.837700 5.821700 2.266200 N 17 XO 0.000000
19 C 0.491400 5.025800 1.217900 C 18 XO 0.000000
20 O 1.182600 5.212000 0.058300 O 19 XO 0.000000
21 C 2.215500 6.224800 0.033600 C 20 XO 0.000000
22 N 0.400900 6.464600 4.455600 N 21 XO 0.000000
23 H 3.459600 1.044900 0.929600 H 22 XO 0.000000
24 H 3.975500 -0.231600 2.078800 H 23 XO 0.000000
25 H 2.714400 0.948700 2.560800 H 24 XO 0.000000
26 H 1.389000 2.018000 1.037700 H 25 XO 0.000000
27 H -2.432800 1.106400 -0.700500 H 26 XO 0.000000
28 H -3.219300 -0.542100 -2.067800 H 27 XO 0.000000
29 H -3.904200 -0.619900 -0.410200 H 28 XO 0.000000
30 H -3.864100 -2.091400 -1.435400 H 29 XO 0.000000
31 H -1.943200 3.323800 -0.174200 H 30 XO 0.000000
32 H -0.348200 3.637400 -0.850500 H 31 XO 0.000000
33 H -2.339200 2.417500 1.922700 H 32 XO 0.000000
34 H -1.331400 4.614400 4.392300 H 33 XO 0.000000
35 H 3.008200 5.998300 0.758700 H 34 XO 0.000000
36 H 1.799900 7.218900 0.244500 H 35 XO 0.000000
37 H 2.614900 6.190300 -0.985600 H 36 XO 0.000000
38 H 0.095300 6.181600 5.382400 H 37 XO 0.000000
39 H 1.262200 7.002400 4.420700 H 38 XO 0.000000

@<TRIPOS>BOND
1 1 2 1
2 2 3 1
3 3 4 ar
4 3 8 ar
5 4 5 ar
6 5 6 ar
7 5 12 1
8 6 7 ar
9 7 8 ar
10 7 10 1
11 8 9 1
12 10 11 1
13 12 13 1
14 13 14 1
15 13 19 2
16 14 15 2
17 14 16 1
18 16 17 1
19 17 18 2
20 17 22 1
21 18 19 1
22 19 20 1
23 20 21 1
24 1 23 1
25 1 24 1
26 1 25 1
27 4 26 1
28 6 27 1
29 11 28 1
30 11 29 1
31 11 30 1
32 12 31 1
33 12 32 1
34 15 33 1
35 16 34 1
36 21 35 1
37 21 36 1
38 21 37 1
39 22 38 1
40 22 39 1

@<COSMOlogic>TOTAL_CHARGE
-1.0
