# Created by COSMOvis on Mon Aug 09 22:24:23 CEST 2021
#
#

#
#

@<TRIPOS>MOLECULE
SAMPL8-2_micro001_c0
26 26
SMALL
USER_CHARGES

@<TRIPOS>ATOM
1 C 1.694500 -2.219900 2.544500 C 0 XO 0.000000
2 C 1.526500 -1.467900 0.252800 C 1 XO 0.000000
3 C 0.973300 -1.104600 2.975500 C 2 XO 0.000000
4 C 0.803600 -0.345600 0.661800 C 3 XO 0.000000
5 C 1.982700 -2.421700 1.181700 C 4 XO 0.000000
6 C 0.534900 -0.178600 2.023800 C 5 XO 0.000000
7 C 5.228200 -4.465900 0.297000 C 6 XO 0.000000
8 C -2.145200 0.756400 2.539600 C 7 XO 0.000000
9 C 2.802000 -3.607100 0.732800 C 8 XO 0.000000
10 C 4.309500 -3.293800 0.722500 C 9 XO 0.000000
11 O 4.704100 -5.598600 0.075400 O 10 XO -1.000000
12 O -0.030700 1.573900 3.991300 O 11 XO 0.000000
13 O -0.225400 2.357400 1.539800 O 12 XO 0.000000
14 O 6.466800 -4.188100 0.210900 O 13 XO 0.000000
15 S -0.406400 1.272600 2.566100 S 14 XO 0.000000
16 H 2.038000 -2.948600 3.281900 H 15 XO 0.000000
17 H 1.738300 -1.606000 -0.809700 H 16 XO 0.000000
18 H 0.760700 -0.955900 4.034900 H 17 XO 0.000000
19 H 0.460400 0.390200 -0.066300 H 18 XO 0.000000
20 H -2.402000 0.469400 1.514000 H 19 XO 0.000000
21 H -2.264400 -0.083000 3.233500 H 20 XO 0.000000
22 H -2.727200 1.626700 2.866000 H 21 XO 0.000000
23 H 2.618800 -4.463100 1.398400 H 22 XO 0.000000
24 H 2.491300 -3.913400 -0.277100 H 23 XO 0.000000
25 H 4.517100 -2.443700 0.052300 H 24 XO 0.000000
26 H 4.633700 -2.969200 1.725400 H 25 XO 0.000000

@<TRIPOS>BOND
1 1 3 ar
2 1 5 ar
3 2 4 ar
4 2 5 ar
5 3 6 ar
6 4 6 ar
7 5 9 1
8 6 15 1
9 7 10 1
10 7 11 1
11 7 14 2
12 8 15 1
13 9 10 1
14 12 15 2
15 13 15 2
16 1 16 1
17 2 17 1
18 3 18 1
19 4 19 1
20 8 20 1
21 8 21 1
22 8 22 1
23 9 23 1
24 9 24 1
25 10 25 1
26 10 26 1

@<COSMOlogic>TOTAL_CHARGE
-1.0
