# Created by COSMOvis on Mon Aug 09 22:24:21 CEST 2021
#
#

#
#

@<TRIPOS>MOLECULE
SAMPL8-19_extra002_c0
48 51
SMALL
USER_CHARGES

@<TRIPOS>ATOM
1 C -1.459900 0.988900 11.717800 C 0 XO 0.000000
2 C -1.487800 2.230500 11.044200 C 1 XO 0.000000
3 C -0.955000 -0.162800 11.115700 C 2 XO 0.000000
4 C -1.010200 2.370900 9.741200 C 3 XO 0.000000
5 C 3.513400 -6.082900 12.263900 C 4 XO 0.000000
6 C 1.183700 -6.482700 12.177100 C 5 XO 0.000000
7 C 2.386500 -6.414700 11.492000 C 6 XO 0.000000
8 C -0.474700 -0.024800 9.810300 C 7 XO 0.000000
9 C -0.501200 1.217400 9.138400 C 8 XO 0.000000
10 C 0.391200 -0.301100 7.771500 C 9 XO 0.000000
11 C 2.299000 -5.907100 14.183700 C 10 XO 0.000000
12 C 3.632900 -5.018200 8.497400 C 11 XO 0.000000
13 C 2.531300 -5.386000 9.209500 C 12 XO 0.000000
14 C 1.356600 -4.514300 9.184300 C 13 XO 0.000000
15 C 2.556300 -3.022500 7.807400 C 14 XO 0.000000
16 C 0.201300 2.052100 6.859000 C 15 XO 0.000000
17 C 3.300800 -5.337200 16.265900 C 16 XO 0.000000
18 C 2.476800 -6.668700 10.003100 C 17 XO 0.000000
19 C 1.003600 -1.000300 6.615500 C 18 XO 0.000000
20 N 3.478800 -5.834900 13.581700 N 19 XO 0.000000
21 N 1.161100 -6.230100 13.504700 N 20 XO 1.000000
22 N 0.075700 -0.930400 8.917400 N 21 XO 1.000000
23 N 1.465500 -3.305000 8.471200 N 22 XO 0.000000
24 N 0.050800 1.004400 7.870700 N 23 XO 0.000000
25 N 3.640700 -3.846700 7.780300 N 24 XO 0.000000
26 O 0.296800 -4.788100 9.773000 O 25 XO 0.000000
27 O 2.121000 -5.682500 15.468600 O 26 XO 0.000000
28 S 2.769500 -1.501400 6.886500 S 27 XO 0.000000
29 H -1.845000 0.930100 12.736200 H 28 XO 0.000000
30 H -1.893300 3.103300 11.556800 H 29 XO 0.000000
31 H -0.935500 -1.120900 11.634200 H 30 XO 0.000000
32 H -1.033700 3.330500 9.225900 H 31 XO 0.000000
33 H 4.500400 -6.018900 11.798400 H 32 XO 0.000000
34 H 0.231400 -6.734900 11.717000 H 33 XO 0.000000
35 H 4.544400 -5.610400 8.433900 H 34 XO 0.000000
36 H -0.783800 2.473400 6.626300 H 35 XO 0.000000
37 H 0.864500 2.835100 7.245200 H 36 XO 0.000000
38 H 0.634200 1.630400 5.949000 H 37 XO 0.000000
39 H 2.910700 -5.202800 17.277100 H 38 XO 0.000000
40 H 3.743800 -4.410000 15.886800 H 39 XO 0.000000
41 H 4.024600 -6.158600 16.227900 H 40 XO 0.000000
42 H 3.370700 -7.271000 9.791600 H 41 XO 0.000000
43 H 1.601600 -7.255200 9.687300 H 42 XO 0.000000
44 H 0.433600 -1.903500 6.366900 H 43 XO 0.000000
45 H 1.039200 -0.362400 5.727100 H 44 XO 0.000000
46 H 4.456200 -3.613100 7.213700 H 45 XO 0.000000
47 H 0.358000 -1.933300 9.029500 H 46 XO 0.000000
48 H 0.277600 -6.281500 14.020100 H 47 XO 0.000000

@<TRIPOS>BOND
1 1 2 ar
2 1 3 ar
3 2 4 ar
4 3 8 ar
5 4 9 ar
6 5 7 1
7 5 20 2
8 6 7 2
9 6 21 1
10 7 18 1
11 8 9 ar
12 8 22 1
13 9 24 1
14 10 19 1
15 10 22 2
16 10 24 1
17 11 20 1
18 11 21 2
19 11 27 1
20 12 13 2
21 12 25 1
22 13 14 1
23 13 18 1
24 14 23 1
25 14 26 2
26 15 23 2
27 15 25 1
28 15 28 1
29 16 24 1
30 17 27 1
31 19 28 1
32 1 29 1
33 2 30 1
34 3 31 1
35 4 32 1
36 5 33 1
37 6 34 1
38 12 35 1
39 16 36 1
40 16 37 1
41 16 38 1
42 17 39 1
43 17 40 1
44 17 41 1
45 18 42 1
46 18 43 1
47 19 44 1
48 19 45 1
49 21 48 1
50 22 47 1
51 25 46 1

@<COSMOlogic>TOTAL_CHARGE
2.0
