# Created by COSMOvis on Mon Aug 09 22:24:20 CEST 2021
#
#

#
#

@<TRIPOS>MOLECULE
SAMPL8-11_micro002_c0
43 45
SMALL
USER_CHARGES

@<TRIPOS>ATOM
1 C 3.517200 -1.616000 -2.680200 C 0 XO 0.000000
2 C 3.023700 -0.307600 -0.245100 C 1 XO 0.000000
3 C 1.909700 -0.775200 -1.034400 C 2 XO 0.000000
4 C 2.227800 -1.513600 -2.196500 C 3 XO 0.000000
5 C 4.319100 -0.379400 -0.811700 C 4 XO 0.000000
6 C 5.433900 0.233400 -0.171900 C 5 XO 0.000000
7 C 5.245200 0.904600 0.990600 C 6 XO 0.000000
8 C 3.948000 0.973000 1.639100 C 7 XO 0.000000
9 C -1.386700 1.669000 -0.847800 C 8 XO 0.000000
10 C -2.964300 -0.177200 -1.550400 C 9 XO 0.000000
11 C -2.564800 2.457400 -0.257100 C 10 XO 0.000000
12 C -4.137300 0.614500 -0.952000 C 11 XO 0.000000
13 C -1.643200 0.152500 -0.826500 C 12 XO 0.000000
14 C -3.886300 2.133800 -0.964800 C 13 XO 0.000000
15 C 1.653100 0.144400 1.813700 C 14 XO 0.000000
16 C -0.519300 -0.643200 -1.469100 C 15 XO 0.000000
17 N 4.507200 -1.024600 -1.999800 N 16 XO 1.000000
18 N 2.880800 0.285900 0.999300 N 17 XO 0.000000
19 N -4.980900 2.930300 -0.368300 N 18 XO 0.000000
20 O 3.759100 1.557100 2.716100 O 19 XO 0.000000
21 O 0.683700 -0.485600 -0.616900 O 20 XO 0.000000
22 F 1.257600 -2.130800 -2.901300 F 21 XO 0.000000
23 H 3.761700 -2.146700 -3.597000 H 22 XO 0.000000
24 H 6.418400 0.163100 -0.637400 H 23 XO 0.000000
25 H 6.068000 1.400900 1.503000 H 24 XO 0.000000
26 H -0.462900 1.909900 -0.300200 H 25 XO 0.000000
27 H -1.223000 1.983400 -1.894600 H 26 XO 0.000000
28 H -2.862500 0.072200 -2.621600 H 27 XO 0.000000
29 H -3.168800 -1.258100 -1.493600 H 28 XO 0.000000
30 H -2.670400 2.212800 0.815900 H 29 XO 0.000000
31 H -2.368100 3.539000 -0.319600 H 30 XO 0.000000
32 H -5.063600 0.387900 -1.504700 H 31 XO 0.000000
33 H -4.301300 0.296400 0.093700 H 32 XO 0.000000
34 H -1.738800 -0.183200 0.221700 H 33 XO 0.000000
35 H -3.797700 2.457100 -2.017900 H 34 XO 0.000000
36 H 0.920400 0.920100 1.565400 H 35 XO 0.000000
37 H 1.221000 -0.845900 1.658500 H 36 XO 0.000000
38 H 1.956500 0.264400 2.857400 H 37 XO 0.000000
39 H -0.759000 -1.712400 -1.515100 H 38 XO 0.000000
40 H -0.283800 -0.263300 -2.472600 H 39 XO 0.000000
41 H -5.861100 2.695400 -0.839200 H 40 XO 0.000000
42 H -5.111300 2.633700 0.605800 H 41 XO 0.000000
43 H 5.454000 -1.061500 -2.382700 H 42 XO 0.000000

@<TRIPOS>BOND
1 1 4 2
2 1 17 1
3 2 3 2
4 2 5 1
5 2 18 1
6 3 4 1
7 3 21 1
8 4 22 1
9 5 6 1
10 5 17 2
11 6 7 2
12 7 8 1
13 8 18 1
14 8 20 2
15 9 11 1
16 9 13 1
17 10 12 1
18 10 13 1
19 11 14 1
20 12 14 1
21 13 16 1
22 14 19 1
23 15 18 1
24 16 21 1
25 1 23 1
26 6 24 1
27 7 25 1
28 9 26 1
29 9 27 1
30 10 28 1
31 10 29 1
32 11 30 1
33 11 31 1
34 12 32 1
35 12 33 1
36 13 34 1
37 14 35 1
38 15 36 1
39 15 37 1
40 15 38 1
41 16 39 1
42 16 40 1
43 17 43 1
44 19 41 1
45 19 42 1

@<COSMOlogic>TOTAL_CHARGE
1.0
