# Created by COSMOvis on Mon Aug 09 22:24:22 CEST 2021
#
#

#
#

@<TRIPOS>MOLECULE
SAMPL8-21_micro029_c0
40 41
SMALL
USER_CHARGES

@<TRIPOS>ATOM
1 C 3.461700 -0.107700 1.694100 C 0 XO 0.000000
2 O 2.356500 -0.968400 1.360000 O 1 XO 0.000000
3 C 1.270200 -0.393200 0.750400 C 2 XO 0.000000
4 C 1.156700 0.970500 0.428200 C 3 XO 0.000000
5 C -0.001400 1.467500 -0.188900 C 4 XO 0.000000
6 C -1.060400 0.595800 -0.485700 C 5 XO 0.000000
7 C -0.947800 -0.761800 -0.169000 C 6 XO 0.000000
8 C 0.213100 -1.267700 0.447400 C 7 XO 0.000000
9 O 0.318500 -2.600200 0.765800 O 8 XO 0.000000
10 O -1.903400 -1.724400 -0.400200 O 9 XO 0.000000
11 C -3.129800 -1.317600 -1.036200 C 10 XO 0.000000
12 C -0.082400 2.945000 -0.564300 C 11 XO 0.000000
13 C -1.393800 3.616300 -0.234900 C 12 XO 0.000000
14 C -1.848500 3.797000 1.114000 C 13 XO 0.000000
15 N -2.986600 4.416900 1.460500 N 14 XO 0.000000
16 C -3.793300 4.934900 0.486900 C 15 XO 0.000000
17 N -4.921700 5.564800 0.672000 N 16 XO 0.000000
18 N -3.382900 4.773800 -0.857400 N 17 XO 0.000000
19 C -2.228500 4.141900 -1.206700 C 18 XO 0.000000
20 O -1.896400 4.033000 -2.506000 O 19 XO 0.000000
21 C -2.771800 4.593300 -3.518100 C 20 XO 0.000000
22 N -1.064600 3.351500 2.139900 N 21 XO 0.000000
23 H 3.155400 0.675300 2.404500 H 22 XO 0.000000
24 H 3.892000 0.355100 0.792800 H 23 XO 0.000000
25 H 4.206600 -0.758300 2.164000 H 24 XO 0.000000
26 H 1.975600 1.653200 0.654600 H 25 XO 0.000000
27 H -1.965400 0.982600 -0.953000 H 26 XO 0.000000
28 H -0.515200 -3.028300 0.478700 H 27 XO 0.000000
29 H -2.933700 -0.901100 -2.035800 H 28 XO 0.000000
30 H -3.665000 -0.579500 -0.420000 H 29 XO 0.000000
31 H -3.731100 -2.227700 -1.126600 H 30 XO 0.000000
32 H 0.105500 3.054700 -1.642500 H 31 XO 0.000000
33 H 0.742200 3.476300 -0.059400 H 32 XO 0.000000
34 H -5.094900 5.607200 1.683000 H 33 XO 0.000000
35 H -4.005200 5.159500 -1.565200 H 34 XO 0.000000
36 H -2.863100 5.681700 -3.396300 H 35 XO 0.000000
37 H -3.758000 4.108900 -3.494100 H 36 XO 0.000000
38 H -2.280000 4.372200 -4.469000 H 37 XO 0.000000
39 H -0.373500 2.628300 1.954000 H 38 XO 0.000000
40 H -1.486300 3.336500 3.065300 H 39 XO 0.000000

@<TRIPOS>BOND
1 1 2 1
2 2 3 1
3 3 4 ar
4 3 8 ar
5 4 5 ar
6 5 6 ar
7 5 12 1
8 6 7 ar
9 7 8 ar
10 7 10 1
11 8 9 1
12 10 11 1
13 12 13 1
14 13 14 1
15 13 19 2
16 14 15 2
17 14 22 1
18 15 16 1
19 16 17 2
20 16 18 1
21 18 19 1
22 19 20 1
23 20 21 1
24 1 23 1
25 1 24 1
26 1 25 1
27 4 26 1
28 6 27 1
29 9 28 1
30 11 29 1
31 11 30 1
32 11 31 1
33 12 32 1
34 12 33 1
35 17 34 1
36 18 35 1
37 21 36 1
38 21 37 1
39 21 38 1
40 22 39 1
41 22 40 1

@<COSMOlogic>TOTAL_CHARGE
0.0
