# Created by COSMOvis on Mon Aug 09 22:24:23 CEST 2021
#
#

#
#

@<TRIPOS>MOLECULE
SAMPL8-22_micro001_c0
25 26
SMALL
USER_CHARGES

@<TRIPOS>ATOM
1 C 3.523400 -0.912900 0.147300 C 0 XO 0.000000
2 O 2.232800 -1.539000 0.034700 O 1 XO 0.000000
3 C 1.139400 -0.711100 0.004600 C 2 XO 0.000000
4 C 1.182500 0.674500 0.067700 C 3 XO 0.000000
5 C -0.001800 1.444700 0.028100 C 4 XO 0.000000
6 C -1.253100 0.792900 -0.076300 C 5 XO 0.000000
7 C -1.296000 -0.621300 -0.140600 C 6 XO 0.000000
8 C -0.127400 -1.371200 -0.101400 C 7 XO 0.000000
9 O -0.074700 -2.735800 -0.156300 O 8 XO 0.000000
10 C -1.325000 -3.442900 -0.274200 C 9 XO 0.000000
11 N -2.454300 1.498800 -0.118400 N 10 XO 0.000000
12 C -2.282300 2.797700 -0.051600 C 11 XO 0.000000
13 N -1.216500 3.564400 0.045600 N 12 XO 0.000000
14 C 0.020600 2.913600 0.092900 C 13 XO 0.000000
15 N 1.149400 3.574900 0.190000 N 14 XO -1.000000
16 Cl -3.854100 3.741800 -0.104500 Cl 15 XO 0.000000
17 H 3.604600 -0.336400 1.081900 H 16 XO 0.000000
18 H 3.720800 -0.252800 -0.711700 H 17 XO 0.000000
19 H 4.248400 -1.733600 0.155900 H 18 XO 0.000000
20 H 2.130800 1.203900 0.148200 H 19 XO 0.000000
21 H -2.270500 -1.101200 -0.220100 H 20 XO 0.000000
22 H -1.058800 -4.504400 -0.304200 H 21 XO 0.000000
23 H -1.849700 -3.165200 -1.201200 H 22 XO 0.000000
24 H -1.973600 -3.246900 0.592900 H 23 XO 0.000000
25 H 0.924200 4.579400 0.220100 H 24 XO 0.000000

@<TRIPOS>BOND
1 1 2 1
2 2 3 1
3 3 4 ar
4 3 8 ar
5 4 5 ar
6 5 6 ar
7 5 14 ar
8 6 7 ar
9 6 11 ar
10 7 8 ar
11 8 9 1
12 9 10 1
13 11 12 ar
14 12 13 ar
15 12 16 1
16 13 14 ar
17 14 15 1
18 1 17 1
19 1 18 1
20 1 19 1
21 4 20 1
22 7 21 1
23 10 22 1
24 10 23 1
25 10 24 1
26 15 25 1

@<COSMOlogic>TOTAL_CHARGE
-1.0
