# Created by COSMOvis on Mon Aug 09 22:24:22 CEST 2021
#
#

#
#

@<TRIPOS>MOLECULE
SAMPL8-20_micro018_c0
26 28
SMALL
USER_CHARGES

@<TRIPOS>ATOM
1 C -4.461100 0.197800 -0.118000 C 0 XO 0.000000
2 C -3.813900 -0.746500 -0.925000 C 1 XO 0.000000
3 C -3.713300 1.013800 0.737800 C 2 XO 0.000000
4 C -2.425600 -0.884000 -0.873400 C 3 XO 0.000000
5 C -2.322800 0.887400 0.789100 C 4 XO 0.000000
6 C 1.971500 -1.307700 0.262100 C 5 XO 0.000000
7 C 2.617800 -0.095400 0.093300 C 6 XO 0.000000
8 C -1.668600 -0.066900 -0.013800 C 7 XO 0.000000
9 C 0.566200 -1.324700 0.231500 C 8 XO 0.000000
10 C -0.192100 -0.156900 0.024400 C 9 XO 0.000000
11 C 1.848000 1.108600 -0.097000 C 10 XO 0.000000
12 C 3.958900 0.411400 0.047700 C 11 XO 0.000000
13 N 0.480300 1.019700 -0.129900 N 12 XO 0.000000
14 N 3.934500 1.734900 -0.143900 N 13 XO 0.000000
15 N 2.596600 2.191000 -0.235100 N 14 XO 0.000000
16 N 5.135000 -0.296100 0.268600 N 15 XO 0.000000
17 Cl -0.245500 -2.860600 0.540500 Cl 16 XO 0.000000
18 H -5.547000 0.297700 -0.157800 H 17 XO 0.000000
19 H -4.392400 -1.376200 -1.602600 H 18 XO 0.000000
20 H -4.212100 1.747500 1.372700 H 19 XO 0.000000
21 H -1.927000 -1.609700 -1.515800 H 20 XO 0.000000
22 H -1.746200 1.513500 1.472600 H 21 XO 0.000000
23 H 2.515000 -2.238800 0.430300 H 22 XO 0.000000
24 H 5.968300 0.215200 -0.023700 H 23 XO 0.000000
25 H 5.139800 -1.239500 -0.117300 H 24 XO 0.000000
26 H -0.064300 1.864800 -0.317300 H 25 XO 0.000000

@<TRIPOS>BOND
1 1 2 ar
2 1 3 ar
3 2 4 ar
4 3 5 ar
5 4 8 ar
6 5 8 ar
7 6 7 ar
8 6 9 ar
9 7 11 ar
10 7 12 ar
11 8 10 1
12 9 10 ar
13 9 17 1
14 10 13 ar
15 11 13 ar
16 11 15 ar
17 12 14 ar
18 12 16 1
19 14 15 ar
20 1 18 1
21 2 19 1
22 3 20 1
23 4 21 1
24 5 22 1
25 6 23 1
26 13 26 1
27 16 24 1
28 16 25 1

@<COSMOlogic>TOTAL_CHARGE
0.0
