# Created by COSMOvis on Mon Aug 09 22:24:23 CEST 2021
#
#

#
#

@<TRIPOS>MOLECULE
SAMPL8-9_micro001_c0
36 38
SMALL
USER_CHARGES

@<TRIPOS>ATOM
1 C 0.909200 9.039100 -0.949500 C 0 XO 0.000000
2 C 0.115800 9.331700 -2.074800 C 1 XO 0.000000
3 C 0.277900 6.999800 -2.858800 C 2 XO 0.000000
4 C 1.390500 7.735100 -0.768100 C 3 XO 0.000000
5 C 1.061900 6.732200 -1.738000 C 4 XO 0.000000
6 C -0.181500 8.321100 -2.993200 C 5 XO 0.000000
7 C 2.337600 5.887500 -0.076100 C 6 XO 0.000000
8 C 4.466200 2.662900 -4.728000 C 7 XO 0.000000
9 C 4.853300 3.918700 -3.933000 C 8 XO 0.000000
10 C 3.689600 1.672000 -3.848200 C 9 XO 0.000000
11 C 3.625800 4.577900 -3.287300 C 10 XO 0.000000
12 C 2.461900 2.341600 -3.213800 C 11 XO 0.000000
13 C 2.842200 3.591500 -2.393000 C 12 XO 0.000000
14 C 1.536700 4.235500 -1.856700 C 13 XO 0.000000
15 N 2.170700 7.204200 0.237700 N 14 XO 0.000000
16 N 1.670700 5.573300 -1.285600 N 15 XO 0.000000
17 N 3.011900 4.941400 0.561100 N 16 XO -1.000000
18 O 3.663800 3.147500 -1.294200 O 17 XO 0.000000
19 Br -1.278800 8.753300 -4.536600 Br 18 XO 0.000000
20 H 1.142300 9.823800 -0.226700 H 19 XO 0.000000
21 H -0.264300 10.342200 -2.225400 H 20 XO 0.000000
22 H 0.029800 6.236700 -3.596300 H 21 XO 0.000000
23 H 3.835900 2.956300 -5.587500 H 22 XO 0.000000
24 H 5.365300 2.181500 -5.145300 H 23 XO 0.000000
25 H 5.566000 3.640600 -3.139200 H 24 XO 0.000000
26 H 5.366900 4.643900 -4.584500 H 25 XO 0.000000
27 H 3.372400 0.798100 -4.439500 H 26 XO 0.000000
28 H 4.349000 1.295900 -3.048500 H 27 XO 0.000000
29 H 3.927400 5.448300 -2.683900 H 28 XO 0.000000
30 H 2.952200 4.955300 -4.077900 H 29 XO 0.000000
31 H 1.760900 2.641200 -4.012300 H 30 XO 0.000000
32 H 1.926600 1.635100 -2.558400 H 31 XO 0.000000
33 H 1.113900 3.562200 -1.091800 H 32 XO 0.000000
34 H 0.806900 4.306900 -2.675100 H 33 XO 0.000000
35 H 3.453900 5.337300 1.395800 H 34 XO 0.000000
36 H 3.504700 3.800700 -0.515600 H 35 XO 0.000000

@<TRIPOS>BOND
1 1 2 ar
2 1 4 ar
3 2 6 ar
4 3 5 ar
5 3 6 ar
6 4 5 ar
7 4 15 ar
8 5 16 ar
9 6 19 1
10 7 15 ar
11 7 16 ar
12 7 17 1
13 8 9 1
14 8 10 1
15 9 11 1
16 10 12 1
17 11 13 1
18 12 13 1
19 13 14 1
20 13 18 1
21 14 16 1
22 1 20 1
23 2 21 1
24 3 22 1
25 8 23 1
26 8 24 1
27 9 25 1
28 9 26 1
29 10 27 1
30 10 28 1
31 11 29 1
32 11 30 1
33 12 31 1
34 12 32 1
35 14 33 1
36 14 34 1
37 17 35 1
38 18 36 1

@<COSMOlogic>TOTAL_CHARGE
-1.0
