# Created by COSMOvis on Mon Aug 09 22:24:22 CEST 2021
#
#

#
#

@<TRIPOS>MOLECULE
SAMPL8-21_micro000_c0
40 41
SMALL
USER_CHARGES

@<TRIPOS>ATOM
1 C -2.018500 7.586000 -2.440200 C 0 XO 0.000000
2 O -3.092000 6.877300 -1.794100 O 1 XO 0.000000
3 C -2.762700 5.945500 -0.834500 C 2 XO 0.000000
4 C -1.465000 5.610900 -0.430900 C 3 XO 0.000000
5 C -1.275000 4.635600 0.557900 C 4 XO 0.000000
6 C -2.388000 4.003700 1.133100 C 5 XO 0.000000
7 C -3.690800 4.337200 0.729600 C 6 XO 0.000000
8 C -3.882900 5.319000 -0.258600 C 7 XO 0.000000
9 O -5.157900 5.643000 -0.658900 O 8 XO 0.000000
10 O -4.837800 3.769800 1.227300 O 9 XO 0.000000
11 C -4.690300 2.762700 2.245600 C 10 XO 0.000000
12 C 0.123500 4.299800 1.071100 C 11 XO 0.000000
13 C 1.230900 4.395100 0.055000 C 12 XO 0.000000
14 C 1.351900 3.386600 -0.978200 C 13 XO 0.000000
15 N 0.582200 2.356100 -1.190600 N 14 XO 0.000000
16 N 2.441300 3.534400 -1.856800 N 15 XO 0.000000
17 C 3.392200 4.531600 -1.838400 C 16 XO 0.000000
18 N 4.396900 4.681100 -2.639700 N 17 XO 0.000000
19 N 3.201000 5.463900 -0.819300 N 18 XO 0.000000
20 C 2.168300 5.403100 0.087500 C 19 XO 0.000000
21 O 2.086400 6.366700 1.027700 O 20 XO 0.000000
22 C 3.115600 7.384600 1.113500 C 21 XO 0.000000
23 H -1.357800 6.891000 -2.980200 H 22 XO 0.000000
24 H -1.435800 8.167000 -1.709400 H 23 XO 0.000000
25 H -2.498800 8.264800 -3.152000 H 24 XO 0.000000
26 H -0.600200 6.094300 -0.884200 H 25 XO 0.000000
27 H -2.232600 3.243100 1.898100 H 26 XO 0.000000
28 H -5.071800 6.333000 -1.349600 H 27 XO 0.000000
29 H -4.122600 1.897200 1.870500 H 28 XO 0.000000
30 H -5.709100 2.451400 2.498500 H 29 XO 0.000000
31 H -4.196400 3.171400 3.140600 H 30 XO 0.000000
32 H 0.103100 3.281300 1.494600 H 31 XO 0.000000
33 H 0.362400 4.967400 1.913000 H 32 XO 0.000000
34 H -0.188200 2.354300 -0.513200 H 33 XO 0.000000
35 H 2.523800 2.822900 -2.581800 H 34 XO 0.000000
36 H 4.417100 3.931000 -3.338600 H 35 XO 0.000000
37 H 3.876600 6.224200 -0.795000 H 36 XO 0.000000
38 H 3.135800 8.001800 0.204000 H 37 XO 0.000000
39 H 4.099200 6.933700 1.307000 H 38 XO 0.000000
40 H 2.825900 8.006100 1.964900 H 39 XO 0.000000

@<TRIPOS>BOND
1 1 2 1
2 2 3 1
3 3 4 ar
4 3 8 ar
5 4 5 ar
6 5 6 ar
7 5 12 1
8 6 7 ar
9 7 8 ar
10 7 10 1
11 8 9 1
12 10 11 1
13 12 13 1
14 13 14 ar
15 13 20 ar
16 14 15 2
17 14 16 ar
18 16 17 ar
19 17 18 2
20 17 19 ar
21 19 20 ar
22 20 21 1
23 21 22 1
24 1 23 1
25 1 24 1
26 1 25 1
27 4 26 1
28 6 27 1
29 9 28 1
30 11 29 1
31 11 30 1
32 11 31 1
33 12 32 1
34 12 33 1
35 15 34 1
36 16 35 1
37 18 36 1
38 19 37 1
39 22 38 1
40 22 39 1
41 22 40 1

@<COSMOlogic>TOTAL_CHARGE
0.0
