# Created by COSMOvis on Mon Aug 09 22:24:22 CEST 2021
#
#

#
#

@<TRIPOS>MOLECULE
SAMPL8-20_micro011_c0
27 29
SMALL
USER_CHARGES

@<TRIPOS>ATOM
1 C -4.527500 -0.045200 -0.439700 C 0 XO 0.000000
2 C -3.683200 -0.053600 -1.556500 C 1 XO 0.000000
3 C -3.977600 -0.028900 0.847600 C 2 XO 0.000000
4 C -2.296500 -0.046700 -1.386500 C 3 XO 0.000000
5 C -2.591000 -0.003200 1.021000 C 4 XO 0.000000
6 C 1.858100 0.821000 0.984400 C 5 XO 0.000000
7 C 2.505100 -0.210200 0.273800 C 6 XO 0.000000
8 C -1.737400 -0.011300 -0.096400 C 7 XO 0.000000
9 C 0.486700 0.883200 0.854600 C 8 XO 0.000000
10 C -0.256000 -0.058000 0.046100 C 9 XO 0.000000
11 C 1.706600 -1.090000 -0.535900 C 10 XO 0.000000
12 C 3.800600 -0.683700 0.073700 C 11 XO 0.000000
13 N 0.362500 -1.016000 -0.644000 N 12 XO 0.000000
14 N 3.715600 -1.730500 -0.778200 N 13 XO 0.000000
15 N 2.461700 -2.019800 -1.175400 N 14 XO 0.000000
16 N 5.073900 -0.213400 0.578300 N 15 XO 1.000000
17 Cl -0.344700 2.219100 1.656900 Cl 16 XO 0.000000
18 H -5.611000 -0.056100 -0.572000 H 17 XO 0.000000
19 H -4.105300 -0.067100 -2.562900 H 18 XO 0.000000
20 H -4.630100 -0.038300 1.722300 H 19 XO 0.000000
21 H -1.636400 -0.061500 -2.255100 H 20 XO 0.000000
22 H -2.173700 -0.002200 2.028400 H 21 XO 0.000000
23 H 2.400000 1.548700 1.587800 H 22 XO 0.000000
24 H 5.727700 -0.986500 0.780500 H 23 XO 0.000000
25 H 5.551200 0.429000 -0.076000 H 24 XO 0.000000
26 H 4.952300 0.297100 1.466300 H 25 XO 0.000000
27 H 4.488200 -2.297300 -1.129300 H 26 XO 0.000000

@<TRIPOS>BOND
1 1 2 ar
2 1 3 ar
3 2 4 ar
4 3 5 ar
5 4 8 ar
6 5 8 ar
7 6 7 ar
8 6 9 ar
9 7 11 ar
10 7 12 ar
11 8 10 1
12 9 10 ar
13 9 17 1
14 10 13 ar
15 11 13 ar
16 11 15 ar
17 12 14 ar
18 12 16 1
19 14 15 ar
20 1 18 1
21 2 19 1
22 3 20 1
23 4 21 1
24 5 22 1
25 6 23 1
26 14 27 1
27 16 24 1
28 16 25 1
29 16 26 1

@<COSMOlogic>TOTAL_CHARGE
1.0
