# Created by COSMOvis on Mon Aug 09 22:24:21 CEST 2021
#
#

#
#

@<TRIPOS>MOLECULE
SAMPL8-14_micro013_c0
43 44
SMALL
USER_CHARGES

@<TRIPOS>ATOM
1 C -1.401700 3.855400 -1.345100 C 0 XO 0.000000
2 C -1.006200 2.423000 -1.075900 C 1 XO 0.000000
3 C 0.243900 1.929300 -1.472400 C 2 XO 0.000000
4 C 0.617200 0.604400 -1.222200 C 3 XO 0.000000
5 C -0.295400 -0.227400 -0.556300 C 4 XO 0.000000
6 C -1.562800 0.203300 -0.135800 C 5 XO 0.000000
7 C -1.897500 1.554200 -0.412400 C 6 XO 0.000000
8 O -3.132800 2.022400 -0.012900 O 7 XO 0.000000
9 C -2.535400 -0.750700 0.590400 C 8 XO 0.000000
10 C -2.864400 -0.202900 2.001700 C 9 XO 0.000000
11 C -1.932700 -2.158100 0.774000 C 10 XO 0.000000
12 C -3.837300 -0.909200 -0.233800 C 11 XO 0.000000
13 C 1.968300 0.073400 -1.691100 C 12 XO 0.000000
14 C 2.750600 -0.697200 -0.654200 C 13 XO 0.000000
15 C 3.085000 -2.012900 -0.822100 C 14 XO 0.000000
16 N 3.823300 -2.681600 0.103000 N 15 XO 0.000000
17 C 4.296800 -2.072600 1.277800 C 16 XO 0.000000
18 N 5.008300 -2.807300 2.089700 N 17 XO 0.000000
19 N 3.965700 -0.752900 1.478600 N 18 XO 0.000000
20 C 3.239900 -0.095500 0.570800 C 19 XO 0.000000
21 N 2.990200 1.219700 0.808700 N 20 XO 0.000000
22 H -0.595500 4.386700 -1.865900 H 21 XO 0.000000
23 H -2.302000 3.924400 -1.979000 H 22 XO 0.000000
24 H -1.610100 4.409700 -0.413900 H 23 XO 0.000000
25 H 0.934100 2.600800 -1.991500 H 24 XO 0.000000
26 H 0.004400 -1.256100 -0.357900 H 25 XO 0.000000
27 H -3.216700 2.960200 -0.271600 H 26 XO 0.000000
28 H -1.948100 -0.118300 2.605900 H 27 XO 0.000000
29 H -3.342000 0.782900 1.955300 H 28 XO 0.000000
30 H -3.548000 -0.895000 2.518000 H 29 XO 0.000000
31 H -1.018500 -2.140400 1.385900 H 30 XO 0.000000
32 H -1.698600 -2.637400 -0.188400 H 31 XO 0.000000
33 H -2.666200 -2.794000 1.291600 H 32 XO 0.000000
34 H -4.348700 0.050400 -0.374500 H 33 XO 0.000000
35 H -3.618600 -1.336200 -1.224800 H 34 XO 0.000000
36 H -4.524500 -1.595200 0.285800 H 35 XO 0.000000
37 H 2.569300 0.924100 -2.055600 H 36 XO 0.000000
38 H 1.822300 -0.585000 -2.562900 H 37 XO 0.000000
39 H 2.788000 -2.588100 -1.699000 H 38 XO 0.000000
40 H 4.061800 -3.660100 -0.045500 H 39 XO 0.000000
41 H 5.272800 -2.223700 2.891900 H 40 XO 0.000000
42 H 3.223800 1.587400 1.727700 H 41 XO 0.000000
43 H 2.237800 1.685900 0.307900 H 42 XO 0.000000

@<TRIPOS>BOND
1 1 2 1
2 2 3 ar
3 2 7 ar
4 3 4 ar
5 4 5 ar
6 4 13 1
7 5 6 ar
8 6 7 ar
9 6 9 1
10 7 8 1
11 9 10 1
12 9 11 1
13 9 12 1
14 13 14 1
15 14 15 2
16 14 20 1
17 15 16 1
18 16 17 1
19 17 18 2
20 17 19 1
21 19 20 2
22 20 21 1
23 1 22 1
24 1 23 1
25 1 24 1
26 3 25 1
27 5 26 1
28 8 27 1
29 10 28 1
30 10 29 1
31 10 30 1
32 11 31 1
33 11 32 1
34 11 33 1
35 12 34 1
36 12 35 1
37 12 36 1
38 13 37 1
39 13 38 1
40 15 39 1
41 16 40 1
42 18 41 1
43 21 42 1
44 21 43 1

@<COSMOlogic>TOTAL_CHARGE
0.0
