# Created by COSMOvis on Mon Aug 09 22:24:22 CEST 2021
#
#

#
#

@<TRIPOS>MOLECULE
SAMPL8-21_extra011_c0
42 43
SMALL
USER_CHARGES

@<TRIPOS>ATOM
1 C -2.396600 2.159500 1.640100 C 0 XO 0.000000
2 O -3.359700 1.288200 1.013500 O 1 XO 0.000000
3 C -3.098600 0.870600 -0.260500 C 2 XO 0.000000
4 C -1.958100 1.213400 -1.001100 C 3 XO 0.000000
5 C -1.794900 0.745700 -2.314100 C 4 XO 0.000000
6 C -2.762500 -0.099700 -2.885100 C 5 XO 0.000000
7 C -3.906100 -0.439400 -2.145400 C 6 XO 0.000000
8 C -4.073700 0.026900 -0.830100 C 7 XO 0.000000
9 O -5.179800 -0.310100 -0.099200 O 8 XO 0.000000
10 O -4.934700 -1.232000 -2.581900 O 9 XO 0.000000
11 C -4.852800 -1.776400 -3.915000 C 10 XO 0.000000
12 C -0.566900 1.145600 -3.121600 C 11 XO 0.000000
13 C 0.739900 0.717700 -2.486900 C 12 XO 0.000000
14 C 1.058300 -0.589100 -2.129300 C 13 XO 0.000000
15 N 0.073900 -1.653600 -2.396700 N 14 XO 0.000000
16 N 2.167400 -1.040500 -1.564400 N 15 XO 0.000000
17 C 3.123200 -0.138100 -1.310500 C 16 XO 0.000000
18 N 4.266800 -0.501700 -0.745300 N 17 XO 2.000000
19 N 2.928900 1.189300 -1.635300 N 18 XO 0.000000
20 C 1.776100 1.633700 -2.211000 C 19 XO 0.000000
21 O 1.620400 2.903800 -2.506400 O 20 XO 0.000000
22 C 2.684400 3.865700 -2.215000 C 21 XO 0.000000
23 H -2.802900 2.375200 2.633300 H 22 XO 0.000000
24 H -1.420000 1.662100 1.739800 H 23 XO 0.000000
25 H -2.284300 3.096600 1.074400 H 24 XO 0.000000
26 H -1.206400 1.870500 -0.565200 H 25 XO 0.000000
27 H -2.656000 -0.431500 -3.918200 H 26 XO 0.000000
28 H -5.735600 -0.888100 -0.663500 H 27 XO 0.000000
29 H -4.818300 -0.971700 -4.664300 H 28 XO 0.000000
30 H -3.971200 -2.426500 -4.017000 H 29 XO 0.000000
31 H -5.764700 -2.366500 -4.047000 H 30 XO 0.000000
32 H -0.633900 0.717200 -4.133600 H 31 XO 0.000000
33 H -0.544600 2.235000 -3.255600 H 32 XO 0.000000
34 H 0.178900 -2.026400 -3.353700 H 33 XO 0.000000
35 H 0.223400 -2.442600 -1.748500 H 34 XO 0.000000
36 H -0.908900 -1.311300 -2.286800 H 35 XO 0.000000
37 H 4.409200 -1.480400 -0.510400 H 36 XO 0.000000
38 H 5.011600 0.157900 -0.538700 H 37 XO 0.000000
39 H 3.677800 1.856900 -1.435800 H 38 XO 0.000000
40 H 2.287900 4.824000 -2.554900 H 39 XO 0.000000
41 H 2.873400 3.896200 -1.134400 H 40 XO 0.000000
42 H 3.585900 3.606200 -2.784700 H 41 XO 0.000000

@<TRIPOS>BOND
1 1 2 1
2 2 3 1
3 3 4 ar
4 3 8 ar
5 4 5 ar
6 5 6 ar
7 5 12 1
8 6 7 ar
9 7 8 ar
10 7 10 1
11 8 9 1
12 10 11 1
13 12 13 1
14 13 14 1
15 13 20 2
16 14 15 2
17 14 16 1
18 16 17 2
19 17 18 1
20 17 19 1
21 19 20 1
22 20 21 1
23 21 22 1
24 1 23 1
25 1 24 1
26 1 25 1
27 4 26 1
28 6 27 1
29 9 28 1
30 11 29 1
31 11 30 1
32 11 31 1
33 12 32 1
34 12 33 1
35 15 34 1
36 15 35 1
37 15 36 1
38 18 37 1
39 18 38 1
40 19 39 1
41 22 40 1
42 22 41 1
43 22 42 1

@<COSMOlogic>TOTAL_CHARGE
2.0
