# Created by COSMOvis on Mon Aug 09 22:24:21 CEST 2021
#
#

#
#

@<TRIPOS>MOLECULE
SAMPL8-14_micro020_c0
41 42
SMALL
USER_CHARGES

@<TRIPOS>ATOM
1 C 2.749700 -0.834800 0.157300 C 0 XO 0.000000
2 C 1.448900 -0.556500 -0.552000 C 1 XO 0.000000
3 C 1.422100 0.127600 -1.770800 C 2 XO 0.000000
4 C 0.222800 0.392300 -2.451800 C 3 XO 0.000000
5 C -0.966300 -0.060600 -1.852700 C 4 XO 0.000000
6 C -1.011000 -0.750800 -0.632900 C 5 XO 0.000000
7 C 0.230800 -1.021000 0.072900 C 6 XO 0.000000
8 O 0.286800 -1.651200 1.211200 O 7 XO -1.000000
9 C -2.351200 -1.215600 -0.030300 C 8 XO 0.000000
10 C -2.554100 -0.546600 1.351100 C 9 XO 0.000000
11 C -2.340100 -2.754100 0.142900 C 10 XO 0.000000
12 C -3.565100 -0.852600 -0.906900 C 11 XO 0.000000
13 C 0.201600 1.173300 -3.749500 C 12 XO 0.000000
14 C -0.027900 2.666800 -3.614100 C 13 XO 0.000000
15 C -0.213900 3.276000 -2.413200 C 14 XO 0.000000
16 N -0.420600 4.631000 -2.319700 N 15 XO 0.000000
17 C -0.460700 5.455500 -3.456100 C 16 XO 0.000000
18 N -0.677500 6.741900 -3.233500 N 17 XO 0.000000
19 N -0.278000 4.882500 -4.673800 N 18 XO 0.000000
20 C -0.061400 3.523900 -4.811600 C 19 XO 0.000000
21 N 0.115500 2.969100 -6.000000 N 20 XO -1.000000
22 H 2.764800 -0.386300 1.165400 H 21 XO 0.000000
23 H 3.606200 -0.440500 -0.409800 H 22 XO 0.000000
24 H 2.904000 -1.916100 0.313400 H 23 XO 0.000000
25 H 2.369900 0.465500 -2.208900 H 24 XO 0.000000
26 H -1.902300 0.149000 -2.377300 H 25 XO 0.000000
27 H -2.630100 0.546800 1.241000 H 26 XO 0.000000
28 H -1.703600 -0.780400 2.004800 H 27 XO 0.000000
29 H -3.483800 -0.906400 1.823700 H 28 XO 0.000000
30 H -1.480500 -3.050300 0.758500 H 29 XO 0.000000
31 H -2.266400 -3.252600 -0.836800 H 30 XO 0.000000
32 H -3.269400 -3.096300 0.628300 H 31 XO 0.000000
33 H -3.509500 -1.319400 -1.902500 H 32 XO 0.000000
34 H -3.664400 0.235300 -1.043500 H 33 XO 0.000000
35 H -4.484900 -1.213700 -0.420400 H 34 XO 0.000000
36 H 1.149600 1.020700 -4.295600 H 35 XO 0.000000
37 H -0.575400 0.769900 -4.424300 H 36 XO 0.000000
38 H -0.212100 2.724800 -1.472900 H 37 XO 0.000000
39 H -0.565200 5.068000 -1.413600 H 38 XO 0.000000
40 H -0.680400 7.208200 -4.148900 H 39 XO 0.000000
41 H 0.054900 3.730500 -6.694400 H 40 XO 0.000000

@<TRIPOS>BOND
1 1 2 1
2 2 3 ar
3 2 7 ar
4 3 4 ar
5 4 5 ar
6 4 13 1
7 5 6 ar
8 6 7 ar
9 6 9 1
10 7 8 1
11 9 10 1
12 9 11 1
13 9 12 1
14 13 14 1
15 14 15 2
16 14 20 1
17 15 16 1
18 16 17 1
19 17 18 2
20 17 19 1
21 19 20 2
22 20 21 1
23 1 22 1
24 1 23 1
25 1 24 1
26 3 25 1
27 5 26 1
28 10 27 1
29 10 28 1
30 10 29 1
31 11 30 1
32 11 31 1
33 11 32 1
34 12 33 1
35 12 34 1
36 12 35 1
37 13 36 1
38 13 37 1
39 15 38 1
40 16 39 1
41 18 40 1
42 21 41 1

@<COSMOlogic>TOTAL_CHARGE
-2.0
