# Created by COSMOvis on Mon Aug 09 22:24:23 CEST 2021
#
#

#
#

@<TRIPOS>MOLECULE
SAMPL8-9_micro000_c0
37 39
SMALL
USER_CHARGES

@<TRIPOS>ATOM
1 C 1.163900 8.983800 -0.455700 C 0 XO 0.000000
2 C 0.169800 9.486400 -1.305700 C 1 XO 0.000000
3 C -0.011600 7.326800 -2.481000 C 2 XO 0.000000
4 C 1.576700 7.655700 -0.613500 C 3 XO 0.000000
5 C 0.978000 6.849400 -1.622300 C 4 XO 0.000000
6 C -0.390000 8.660400 -2.291100 C 5 XO 0.000000
7 C 2.516900 5.720600 -0.479400 C 6 XO 0.000000
8 C -1.808400 1.552400 -2.168300 C 7 XO 0.000000
9 C -0.443300 1.095300 -2.702600 C 8 XO 0.000000
10 C -1.643200 2.541400 -1.005600 C 9 XO 0.000000
11 C 0.429000 2.293200 -3.105300 C 10 XO 0.000000
12 C -0.761600 3.737100 -1.402200 C 11 XO 0.000000
13 C 0.607800 3.298400 -1.947500 C 12 XO 0.000000
14 C 1.456200 4.482800 -2.446900 C 13 XO 0.000000
15 N 2.527700 6.924900 0.087900 N 14 XO 0.000000
16 N 1.597600 5.605600 -1.518700 N 15 XO 0.000000
17 N 3.351200 4.684700 -0.166400 N 16 XO 0.000000
18 O 1.406200 2.685700 -0.888100 O 17 XO 0.000000
19 Br -1.758900 9.395600 -3.445800 Br 18 XO 0.000000
20 H 1.607200 9.620600 0.311500 H 19 XO 0.000000
21 H -0.166200 10.517700 -1.200700 H 20 XO 0.000000
22 H -0.468600 6.710700 -3.254500 H 21 XO 0.000000
23 H -2.371200 2.043100 -2.982100 H 22 XO 0.000000
24 H -2.404800 0.684000 -1.847900 H 23 XO 0.000000
25 H 0.075900 0.501000 -1.930300 H 24 XO 0.000000
26 H -0.570900 0.428000 -3.568600 H 25 XO 0.000000
27 H -2.622600 2.911200 -0.666200 H 26 XO 0.000000
28 H -1.207900 2.017300 -0.134100 H 27 XO 0.000000
29 H 1.422200 1.957700 -3.443900 H 28 XO 0.000000
30 H -0.044400 2.817400 -3.953100 H 29 XO 0.000000
31 H -1.275800 4.313100 -2.189900 H 30 XO 0.000000
32 H -0.615700 4.414800 -0.547400 H 31 XO 0.000000
33 H 1.014900 4.876200 -3.371600 H 32 XO 0.000000
34 H 2.463000 4.114000 -2.696900 H 33 XO 0.000000
35 H 3.872200 4.821200 0.697400 H 34 XO 0.000000
36 H 2.923100 3.755700 -0.255700 H 35 XO 0.000000
37 H 0.826600 2.121300 -0.344000 H 36 XO 0.000000

@<TRIPOS>BOND
1 1 2 ar
2 1 4 ar
3 2 6 ar
4 3 5 ar
5 3 6 ar
6 4 5 ar
7 4 15 ar
8 5 16 ar
9 6 19 1
10 7 15 ar
11 7 16 ar
12 7 17 1
13 8 9 1
14 8 10 1
15 9 11 1
16 10 12 1
17 11 13 1
18 12 13 1
19 13 14 1
20 13 18 1
21 14 16 1
22 1 20 1
23 2 21 1
24 3 22 1
25 8 23 1
26 8 24 1
27 9 25 1
28 9 26 1
29 10 27 1
30 10 28 1
31 11 29 1
32 11 30 1
33 12 31 1
34 12 32 1
35 14 33 1
36 14 34 1
37 17 35 1
38 17 36 1
39 18 37 1

@<COSMOlogic>TOTAL_CHARGE
0.0
