# Created by COSMOvis on Mon Aug 09 22:24:23 CEST 2021
#
#

#
#

@<TRIPOS>MOLECULE
SAMPL8-8_micro001_c0
25 26
SMALL
USER_CHARGES

@<TRIPOS>ATOM
1 C 0.743100 -0.854000 0.022600 C 0 XO 0.000000
2 C 1.104500 0.423400 -0.311500 C 1 XO 0.000000
3 C -1.117000 0.430900 -0.075100 C 2 XO 0.000000
4 C -2.824300 -1.644300 0.582600 C 3 XO 0.000000
5 C -3.339500 -0.348400 0.341200 C 4 XO 0.000000
6 C -1.479800 -1.888500 0.496900 C 5 XO 0.000000
7 C -2.497600 0.698500 0.013300 C 6 XO 0.000000
8 C 2.415600 1.047300 -0.599200 C 7 XO 0.000000
9 C 4.753800 0.670100 -0.763900 C 8 XO 0.000000
10 C -2.998500 2.101400 -0.220000 C 9 XO 0.000000
11 N -0.042900 1.194200 -0.367200 N 10 XO 1.000000
12 N -0.638100 -0.849600 0.169500 N 11 XO 0.000000
13 O 2.521800 2.229800 -0.891600 O 12 XO 0.000000
14 O 3.410700 0.161800 -0.488500 O 13 XO 0.000000
15 F -2.538100 2.596800 -1.408200 F 14 XO 0.000000
16 F -2.555300 2.954500 0.750300 F 15 XO 0.000000
17 F -4.345400 2.167000 -0.242200 F 16 XO 0.000000
18 H 1.332200 -1.751300 0.165300 H 17 XO 0.000000
19 H -3.494700 -2.461600 0.839300 H 18 XO 0.000000
20 H -4.411800 -0.174300 0.417600 H 19 XO 0.000000
21 H -1.007600 -2.853000 0.666200 H 20 XO 0.000000
22 H 5.414300 -0.185200 -0.603300 H 21 XO 0.000000
23 H 4.811200 1.021200 -1.800900 H 22 XO 0.000000
24 H 4.990700 1.485500 -0.070700 H 23 XO 0.000000
25 H -0.049400 2.184700 -0.611800 H 24 XO 0.000000

@<TRIPOS>BOND
1 1 2 2
2 1 12 1
3 2 8 1
4 2 11 1
5 3 7 1
6 3 11 2
7 3 12 1
8 4 5 1
9 4 6 2
10 5 7 2
11 6 12 1
12 7 10 1
13 8 13 2
14 8 14 1
15 9 14 1
16 10 15 1
17 10 16 1
18 10 17 1
19 1 18 1
20 4 19 1
21 5 20 1
22 6 21 1
23 9 22 1
24 9 23 1
25 9 24 1
26 11 25 1

@<COSMOlogic>TOTAL_CHARGE
1.0
