# Created by COSMOvis on Mon Aug 09 22:24:23 CEST 2021
#
#

#
#

@<TRIPOS>MOLECULE
SAMPL8-4_micro002_c0
28 29
SMALL
USER_CHARGES

@<TRIPOS>ATOM
1 N -0.813600 -2.357500 5.397800 N 0 XO 1.000000
2 C -1.409100 -1.467700 6.291700 C 1 XO 0.000000
3 C -2.110500 -2.097700 7.432000 C 2 XO 0.000000
4 O -2.184900 -3.314900 7.548900 O 3 XO 0.000000
5 O -2.629300 -1.208200 8.293100 O 4 XO 0.000000
6 H -3.084400 -1.700400 9.011300 H 5 XO 0.000000
7 C 3.340200 -0.979200 -1.154600 C 6 XO 0.000000
8 C 1.543000 -0.586900 0.466000 C 7 XO 0.000000
9 C 0.824600 -0.949400 1.598200 C 8 XO 0.000000
10 C 2.253300 -2.907200 1.864300 C 9 XO 0.000000
11 C 2.622400 -1.368900 0.011000 C 10 XO 0.000000
12 C 1.191000 -2.102300 2.309400 C 11 XO 0.000000
13 C 2.955600 -2.540600 0.726200 C 12 XO 0.000000
14 C -1.246300 -0.156800 5.939100 C 13 XO 0.000000
15 C -0.167900 -1.802000 4.366800 C 14 XO 0.000000
16 C -1.696700 1.108000 6.581400 C 15 XO 0.000000
17 N 3.913700 -0.638300 -2.112600 N 16 XO 0.000000
18 N 0.517700 -2.531900 3.469400 N 17 XO 0.000000
19 S -0.301400 -0.057800 4.442500 S 18 XO 0.000000
20 Cl 4.285100 -3.548000 0.186500 Cl 19 XO 0.000000
21 H 1.258800 0.305000 -0.091400 H 20 XO 0.000000
22 H -0.040600 -0.352000 1.881200 H 21 XO 0.000000
23 H 2.532500 -3.805700 2.414300 H 22 XO 0.000000
24 H -0.909100 1.501900 7.242500 H 23 XO 0.000000
25 H -1.916600 1.874500 5.827000 H 24 XO 0.000000
26 H -2.593100 0.930900 7.184400 H 25 XO 0.000000
27 H 0.639700 -3.517700 3.710000 H 26 XO 0.000000
28 H -0.878600 -3.368100 5.553000 H 27 XO 0.000000

@<TRIPOS>BOND
1 1 2 1
2 1 15 2
3 2 3 1
4 2 14 2
5 3 4 2
6 3 5 1
7 7 11 1
8 7 17 3
9 8 9 ar
10 8 11 ar
11 9 12 ar
12 10 12 ar
13 10 13 ar
14 11 13 ar
15 12 18 1
16 13 20 1
17 14 16 1
18 14 19 1
19 15 18 1
20 15 19 1
21 1 28 1
22 5 6 1
23 8 21 1
24 9 22 1
25 10 23 1
26 16 24 1
27 16 25 1
28 16 26 1
29 18 27 1

@<COSMOlogic>TOTAL_CHARGE
1.0
