# Created by COSMOvis on Mon Aug 09 22:24:22 CEST 2021
#
#

#
#

@<TRIPOS>MOLECULE
SAMPL8-20_micro016_c0
27 29
SMALL
USER_CHARGES

@<TRIPOS>ATOM
1 C -4.506100 0.388000 -0.018700 C 0 XO 0.000000
2 C -3.950100 -0.227200 1.110000 C 1 XO 0.000000
3 C -2.582600 -0.498600 1.162800 C 2 XO 0.000000
4 C -1.755700 -0.141900 0.080800 C 3 XO 0.000000
5 C -2.316400 0.488400 -1.048300 C 4 XO 0.000000
6 C -3.688000 0.744100 -1.096500 C 5 XO 0.000000
7 C -0.300100 -0.368700 0.127900 C 6 XO 0.000000
8 C 0.360100 -1.562100 0.448600 C 7 XO 0.000000
9 C 1.765300 -1.651600 0.454400 C 8 XO 0.000000
10 C 2.497400 -0.533300 0.109200 C 9 XO 0.000000
11 C 3.936600 -0.241800 0.012800 C 10 XO 0.000000
12 N 4.902100 -1.076900 0.174900 N 11 XO 0.000000
13 N 4.000400 1.142200 -0.279500 N 12 XO 0.000000
14 N 2.696200 1.614500 -0.604300 N 13 XO 0.000000
15 C 1.825300 0.650700 -0.253700 C 14 XO 0.000000
16 N 0.477900 0.717100 -0.211600 N 15 XO 1.000000
17 Cl -0.552800 -3.013600 0.808000 Cl 16 XO 0.000000
18 H -5.577400 0.591100 -0.056800 H 17 XO 0.000000
19 H -4.583900 -0.492600 1.957200 H 18 XO 0.000000
20 H -2.154200 -0.959600 2.052300 H 19 XO 0.000000
21 H -1.686900 0.748900 -1.901300 H 20 XO 0.000000
22 H -4.117100 1.217700 -1.980400 H 21 XO 0.000000
23 H 2.256300 -2.586400 0.725300 H 22 XO 0.000000
24 H 5.816900 -0.627400 0.039600 H 23 XO 0.000000
25 H 4.706000 1.464300 -0.944300 H 24 XO 0.000000
26 H 2.529200 2.611800 -0.465200 H 25 XO 0.000000
27 H 0.001800 1.602400 -0.403100 H 26 XO 0.000000

@<TRIPOS>BOND
1 1 2 ar
2 1 6 ar
3 2 3 ar
4 3 4 ar
5 4 5 ar
6 4 7 1
7 5 6 ar
8 7 8 2
9 7 16 1
10 8 9 1
11 8 17 1
12 9 10 2
13 10 11 1
14 10 15 1
15 11 12 2
16 11 13 1
17 13 14 1
18 14 15 1
19 15 16 2
20 1 18 1
21 2 19 1
22 3 20 1
23 5 21 1
24 6 22 1
25 9 23 1
26 12 24 1
27 13 25 1
28 14 26 1
29 16 27 1

@<COSMOlogic>TOTAL_CHARGE
1.0
