# Created by COSMOvis on Mon Aug 09 22:24:22 CEST 2021
#
#

#
#

@<TRIPOS>MOLECULE
SAMPL8-21_extra012_c0
41 42
SMALL
USER_CHARGES

@<TRIPOS>ATOM
1 C -3.543800 -3.087100 1.332200 C 0 XO 0.000000
2 O -3.293300 -2.003600 2.248100 O 1 XO 0.000000
3 C -2.260300 -1.143700 1.960700 C 2 XO 0.000000
4 C -1.421500 -1.216600 0.843600 C 3 XO 0.000000
5 C -0.402900 -0.265100 0.681100 C 4 XO 0.000000
6 C -0.239600 0.753900 1.631100 C 5 XO 0.000000
7 C -1.082600 0.828900 2.754100 C 6 XO 0.000000
8 C -2.100000 -0.125700 2.921500 C 7 XO 0.000000
9 O -2.928000 -0.052400 4.013600 O 8 XO 0.000000
10 O -1.001400 1.785300 3.732600 O 9 XO 0.000000
11 C 0.025200 2.786700 3.597600 C 10 XO 0.000000
12 C 0.557100 -0.348200 -0.500600 C 11 XO 0.000000
13 C -0.101100 -0.557200 -1.844400 C 12 XO 0.000000
14 C -0.992600 0.398900 -2.381100 C 13 XO 0.000000
15 N -1.332300 1.511700 -1.724200 N 14 XO 1.000000
16 N -1.530800 0.211300 -3.628500 N 15 XO 0.000000
17 C -1.264600 -0.875100 -4.460000 C 16 XO 0.000000
18 N -1.735600 -1.093900 -5.631900 N 17 XO 0.000000
19 N -0.381400 -1.793900 -3.886900 N 18 XO 0.000000
20 C 0.179900 -1.657300 -2.652600 C 19 XO 0.000000
21 O 1.018700 -2.589200 -2.208800 O 20 XO 0.000000
22 C 1.326500 -3.749000 -3.034100 C 21 XO 0.000000
23 H -2.368800 -0.344900 -5.929500 H 22 XO 0.000000
24 H -2.669200 -3.751100 1.262900 H 23 XO 0.000000
25 H -4.393200 -3.636000 1.750500 H 24 XO 0.000000
26 H -3.805000 -2.703900 0.334400 H 25 XO 0.000000
27 H -1.554700 -2.006500 0.105100 H 26 XO 0.000000
28 H 0.559100 1.483600 1.499900 H 27 XO 0.000000
29 H -3.562200 -0.796600 3.942400 H 28 XO 0.000000
30 H -0.087200 3.438700 4.469900 H 29 XO 0.000000
31 H 1.027300 2.331500 3.603200 H 30 XO 0.000000
32 H -0.112200 3.374700 2.677300 H 31 XO 0.000000
33 H 1.160500 0.574300 -0.532000 H 32 XO 0.000000
34 H 1.270400 -1.167800 -0.337800 H 33 XO 0.000000
35 H -1.076500 1.618600 -0.744500 H 34 XO 0.000000
36 H -2.006000 2.172700 -2.101800 H 35 XO 0.000000
37 H -2.186100 0.904800 -3.988500 H 36 XO 0.000000
38 H -0.172400 -2.605100 -4.468400 H 37 XO 0.000000
39 H 0.417400 -4.334400 -3.225800 H 38 XO 0.000000
40 H 1.809900 -3.435600 -3.968900 H 39 XO 0.000000
41 H 2.025600 -4.337200 -2.435400 H 40 XO 0.000000

@<TRIPOS>BOND
1 1 2 1
2 2 3 1
3 3 4 ar
4 3 8 ar
5 4 5 ar
6 5 6 ar
7 5 12 1
8 6 7 ar
9 7 8 ar
10 7 10 1
11 8 9 1
12 10 11 1
13 12 13 1
14 13 14 ar
15 13 20 ar
16 14 15 2
17 14 16 ar
18 16 17 ar
19 17 18 2
20 17 19 ar
21 19 20 ar
22 20 21 1
23 21 22 1
24 1 24 1
25 1 25 1
26 1 26 1
27 4 27 1
28 6 28 1
29 9 29 1
30 11 30 1
31 11 31 1
32 11 32 1
33 12 33 1
34 12 34 1
35 15 35 1
36 15 36 1
37 16 37 1
38 18 23 1
39 19 38 1
40 22 39 1
41 22 40 1
42 22 41 1

@<COSMOlogic>TOTAL_CHARGE
1.0
