# Created by COSMOvis on Mon Aug 09 22:24:21 CEST 2021
#
#

#
#

@<TRIPOS>MOLECULE
SAMPL8-16_extra003_c0
34 35
SMALL
USER_CHARGES

@<TRIPOS>ATOM
1 C 4.264900 1.737100 1.759700 C 0 XO 0.000000
2 C 3.004100 2.378500 1.799400 C 1 XO 0.000000
3 C 4.549300 0.639600 2.580100 C 2 XO 0.000000
4 C 1.993100 1.938500 2.661500 C 3 XO 0.000000
5 C 3.543800 0.184300 3.452300 C 4 XO 0.000000
6 C 2.263500 0.836800 3.491700 C 5 XO 0.000000
7 C 2.293100 -0.783100 4.892300 C 6 XO 0.000000
8 C -0.186800 -2.093500 7.324800 C 7 XO 0.000000
9 C -1.804500 -2.031300 9.907200 C 8 XO 0.000000
10 C -3.588800 -1.165800 8.356700 C 9 XO 0.000000
11 C -2.777000 -3.534500 8.096000 C 10 XO 0.000000
12 C 1.832900 -1.757000 5.948500 C 11 XO 0.000000
13 C -2.390600 -2.107600 8.494700 C 12 XO 0.000000
14 N 3.538800 -0.856100 4.365700 N 13 XO -1.000000
15 N 1.473800 0.192600 4.428800 N 14 XO 0.000000
16 N 0.511600 -1.368100 6.418900 N 15 XO 0.000000
17 O 0.248400 -3.099500 7.896300 O 16 XO 0.000000
18 O -1.426600 -1.541300 7.507400 O 17 XO 0.000000
19 H 5.030300 2.108900 1.074500 H 18 XO 0.000000
20 H 2.819500 3.232700 1.144000 H 19 XO 0.000000
21 H 5.526300 0.150100 2.543300 H 20 XO 0.000000
22 H 1.021200 2.438600 2.688200 H 21 XO 0.000000
23 H -0.947600 -2.705300 10.021400 H 22 XO 0.000000
24 H -1.486400 -1.003600 10.135900 H 23 XO 0.000000
25 H -2.576900 -2.318800 10.635400 H 24 XO 0.000000
26 H -4.388900 -1.482900 9.039800 H 25 XO 0.000000
27 H -3.981400 -1.183000 7.330200 H 26 XO 0.000000
28 H -3.305000 -0.134300 8.609400 H 27 XO 0.000000
29 H -3.148800 -3.556400 7.061300 H 28 XO 0.000000
30 H -1.924800 -4.217700 8.185400 H 29 XO 0.000000
31 H -3.582800 -3.888800 8.755500 H 30 XO 0.000000
32 H 1.810500 -2.780800 5.535000 H 31 XO 0.000000
33 H 2.553000 -1.772700 6.783700 H 32 XO 0.000000
34 H 0.084300 -0.577700 5.933400 H 33 XO 0.000000

@<TRIPOS>BOND
1 1 2 ar
2 1 3 ar
3 2 4 ar
4 3 5 ar
5 4 6 ar
6 5 6 ar
7 5 14 ar
8 6 15 ar
9 7 12 1
10 7 14 ar
11 7 15 ar
12 8 16 1
13 8 17 2
14 8 18 1
15 9 13 1
16 10 13 1
17 11 13 1
18 12 16 1
19 13 18 1
20 1 19 1
21 2 20 1
22 3 21 1
23 4 22 1
24 9 23 1
25 9 24 1
26 9 25 1
27 10 26 1
28 10 27 1
29 10 28 1
30 11 29 1
31 11 30 1
32 11 31 1
33 12 32 1
34 12 33 1
35 16 34 1

@<COSMOlogic>TOTAL_CHARGE
-1.0
