# Created by COSMOvis on Mon Aug 09 22:24:22 CEST 2021
#
#

#
#

@<TRIPOS>MOLECULE
SAMPL8-21_extra007_c0
40 41
SMALL
USER_CHARGES

@<TRIPOS>ATOM
1 C 1.655300 1.800900 -0.122000 C 0 XO 0.000000
2 C 1.284800 -0.479100 0.594800 C 1 XO 0.000000
3 C 0.795300 0.827400 0.418700 C 2 XO 0.000000
4 C -1.702200 0.319500 0.212400 C 3 XO 0.000000
5 C 2.974800 1.479000 -0.469600 C 4 XO 0.000000
6 C 2.602200 -0.799500 0.250900 C 5 XO 0.000000
7 C 3.526700 0.159400 -0.305700 C 6 XO 0.000000
8 C -1.864800 0.183400 -1.200900 C 7 XO 0.000000
9 C -2.619800 -0.370600 0.984100 C 8 XO 0.000000
10 C -3.708800 -1.176700 -0.989600 C 9 XO 0.000000
11 C 3.394300 3.728200 -1.221100 C 10 XO 0.000000
12 C 2.299100 -3.084900 0.946200 C 11 XO 0.000000
13 C -3.531300 -1.053100 3.115800 C 12 XO 0.000000
14 C -0.627200 1.194700 0.820600 C 13 XO 0.000000
15 N -2.854800 -0.545100 -1.779800 N 14 XO 0.000000
16 N -3.605200 -1.118800 0.383500 N 15 XO 0.000000
17 N -1.027700 0.821900 -2.042500 N 16 XO 1.000000
18 N -4.714400 -1.899400 -1.506800 N 17 XO 0.000000
19 O 4.742700 -0.142700 -0.629500 O 18 XO -1.000000
20 O 3.869600 2.394500 -1.007800 O 19 XO 0.000000
21 O 3.147000 -2.066800 0.403100 O 20 XO 0.000000
22 O -2.564700 -0.315700 2.318100 O 21 XO 0.000000
23 H 1.285900 2.820700 -0.249300 H 22 XO 0.000000
24 H 0.621400 -1.243200 1.003200 H 23 XO 0.000000
25 H 3.088600 4.207800 -0.276000 H 24 XO 0.000000
26 H 2.545800 3.749600 -1.925500 H 25 XO 0.000000
27 H 4.236700 4.281900 -1.652000 H 26 XO 0.000000
28 H 2.910200 -3.994200 0.986700 H 27 XO 0.000000
29 H 1.419600 -3.265500 0.305900 H 28 XO 0.000000
30 H 1.957200 -2.829400 1.963000 H 29 XO 0.000000
31 H -3.259000 -0.839000 4.152100 H 30 XO 0.000000
32 H -3.445800 -2.132200 2.928100 H 31 XO 0.000000
33 H -4.550200 -0.690800 2.920900 H 32 XO 0.000000
34 H -0.741500 1.168900 1.914300 H 33 XO 0.000000
35 H -0.816800 2.240200 0.521400 H 34 XO 0.000000
36 H -1.100500 0.625900 -3.037500 H 35 XO 0.000000
37 H -0.135800 1.171000 -1.686500 H 36 XO 0.000000
38 H -4.784400 -1.986500 -2.515300 H 37 XO 0.000000
39 H -5.361100 -2.426400 -0.929400 H 38 XO 0.000000
40 H -4.275200 -1.631500 0.956200 H 39 XO 0.000000

@<TRIPOS>BOND
1 1 3 ar
2 1 5 ar
3 2 3 ar
4 2 6 ar
5 3 14 1
6 4 8 1
7 4 9 2
8 4 14 1
9 5 7 ar
10 5 20 1
11 6 7 ar
12 6 21 1
13 7 19 1
14 8 15 1
15 8 17 2
16 9 16 1
17 9 22 1
18 10 15 2
19 10 16 1
20 10 18 1
21 11 20 1
22 12 21 1
23 13 22 1
24 1 23 1
25 2 24 1
26 11 25 1
27 11 26 1
28 11 27 1
29 12 28 1
30 12 29 1
31 12 30 1
32 13 31 1
33 13 32 1
34 13 33 1
35 14 34 1
36 14 35 1
37 16 40 1
38 17 36 1
39 17 37 1
40 18 38 1
41 18 39 1

@<COSMOlogic>TOTAL_CHARGE
0.0
