# Created by COSMOvis on Mon Aug 09 22:24:22 CEST 2021
#
#

#
#

@<TRIPOS>MOLECULE
SAMPL8-21_micro028_c0
40 41
SMALL
USER_CHARGES

@<TRIPOS>ATOM
1 C 1.660000 1.845500 -0.113900 C 0 XO 0.000000
2 C 1.184100 -0.442200 0.540400 C 1 XO 0.000000
3 C 0.753500 0.880400 0.350000 C 2 XO 0.000000
4 C -1.741000 0.351800 0.124400 C 3 XO 0.000000
5 C 2.996100 1.504600 -0.388400 C 4 XO 0.000000
6 C 2.514300 -0.782000 0.273400 C 5 XO 0.000000
7 C 3.429000 0.182600 -0.191500 C 6 XO 0.000000
8 C -1.944200 0.180200 -1.265000 C 7 XO 0.000000
9 C -2.626800 -0.382100 0.930300 C 8 XO 0.000000
10 C -3.676400 -1.271500 -0.885500 C 9 XO 0.000000
11 C 3.548300 3.740000 -1.076700 C 10 XO 0.000000
12 C 2.221100 -3.098100 0.884600 C 11 XO 0.000000
13 C -3.406300 -1.000500 3.117000 C 12 XO 0.000000
14 C -0.683600 1.281000 0.672200 C 13 XO 0.000000
15 N -2.904500 -0.626700 -1.776800 N 14 XO 0.000000
16 N -3.587200 -1.188100 0.461400 N 15 XO 0.000000
17 N -1.195300 0.879400 -2.178400 N 16 XO 0.000000
18 N -4.617000 -2.138900 -1.385200 N 17 XO 0.000000
19 O 4.732900 -0.155700 -0.463900 O 18 XO 0.000000
20 O 3.949600 2.375500 -0.852500 O 19 XO 0.000000
21 O 3.069900 -2.032800 0.417000 O 20 XO 0.000000
22 O -2.494000 -0.253400 2.277000 O 21 XO 0.000000
23 H 1.320400 2.871300 -0.257000 H 22 XO 0.000000
24 H 0.478700 -1.196300 0.888000 H 23 XO 0.000000
25 H 3.205700 4.212600 -0.143400 H 24 XO 0.000000
26 H 2.754900 3.801600 -1.837400 H 25 XO 0.000000
27 H 4.445400 4.252100 -1.440100 H 26 XO 0.000000
28 H 2.859100 -3.986300 0.927200 H 27 XO 0.000000
29 H 1.389400 -3.272000 0.185600 H 28 XO 0.000000
30 H 1.827900 -2.874400 1.887600 H 29 XO 0.000000
31 H -3.113700 -0.747900 4.141400 H 30 XO 0.000000
32 H -3.302700 -2.079900 2.945500 H 31 XO 0.000000
33 H -4.445500 -0.698800 2.931500 H 32 XO 0.000000
34 H -0.805800 1.343900 1.763200 H 33 XO 0.000000
35 H -0.851400 2.301700 0.287200 H 34 XO 0.000000
36 H -1.243200 0.546800 -3.138900 H 35 XO 0.000000
37 H -0.277700 1.209700 -1.885700 H 36 XO 0.000000
38 H -4.880900 -2.013400 -2.358500 H 37 XO 0.000000
39 H -5.368300 -2.407800 -0.756200 H 38 XO 0.000000
40 H 4.825500 -1.112000 -0.269100 H 39 XO 0.000000

@<TRIPOS>BOND
1 1 3 ar
2 1 5 ar
3 2 3 ar
4 2 6 ar
5 3 14 1
6 4 8 ar
7 4 9 ar
8 4 14 1
9 5 7 ar
10 5 20 1
11 6 7 ar
12 6 21 1
13 7 19 1
14 8 15 ar
15 8 17 1
16 9 16 ar
17 9 22 1
18 10 15 ar
19 10 16 ar
20 10 18 1
21 11 20 1
22 12 21 1
23 13 22 1
24 1 23 1
25 2 24 1
26 11 25 1
27 11 26 1
28 11 27 1
29 12 28 1
30 12 29 1
31 12 30 1
32 13 31 1
33 13 32 1
34 13 33 1
35 14 34 1
36 14 35 1
37 17 36 1
38 17 37 1
39 18 38 1
40 18 39 1
41 19 40 1

@<COSMOlogic>TOTAL_CHARGE
0.0
