# Created by COSMOvis on Mon Aug 09 22:24:20 CEST 2021
#
#

#
#

@<TRIPOS>MOLECULE
SAMPL8-14_extra004_c0
44 45
SMALL
USER_CHARGES

@<TRIPOS>ATOM
1 C -0.109100 -1.925900 -0.805100 C 0 XO 0.000000
2 C -0.757100 0.387300 -0.675200 C 1 XO 0.000000
3 C 2.462300 -0.076800 0.801900 C 2 XO 0.000000
4 C 0.200800 -0.578300 -1.015300 C 3 XO 0.000000
5 C -1.341300 -2.311200 -0.265700 C 4 XO 0.000000
6 C -2.011600 0.067100 -0.131700 C 5 XO 0.000000
7 C 2.633100 0.079400 -0.559900 C 6 XO 0.000000
8 C -2.279200 -1.309900 0.069000 C 7 XO 0.000000
9 C 3.937400 0.500000 -0.983200 C 8 XO 0.000000
10 C 4.586700 0.525000 1.183400 C 9 XO 0.000000
11 C -1.676400 -3.766800 -0.044000 C 10 XO 0.000000
12 C -2.500800 2.577200 -0.092200 C 11 XO 0.000000
13 C -3.358600 1.121600 1.737500 C 12 XO 0.000000
14 C -4.333900 0.969300 -0.600400 C 13 XO 0.000000
15 C 1.542600 -0.166000 -1.582500 C 14 XO 0.000000
16 C -3.036400 1.165700 0.222900 C 15 XO 0.000000
17 N 3.446400 0.143200 1.722200 N 16 XO 0.000000
18 N 4.925400 0.724200 -0.076200 N 17 XO 0.000000
19 N 4.241800 0.690700 -2.278800 N 18 XO 0.000000
20 N 5.677900 0.777200 2.157500 N 19 XO 1.000000
21 O -3.499600 -1.674400 0.600000 O 20 XO 0.000000
22 H 0.616400 -2.700500 -1.068100 H 21 XO 0.000000
23 H -0.509000 1.434700 -0.847900 H 22 XO 0.000000
24 H 1.498200 -0.393600 1.202200 H 23 XO 0.000000
25 H -2.562200 -4.081400 -0.621700 H 24 XO 0.000000
26 H -0.840900 -4.406400 -0.355200 H 25 XO 0.000000
27 H -1.879400 -3.988300 1.017600 H 26 XO 0.000000
28 H -1.593800 2.814000 0.484100 H 27 XO 0.000000
29 H -2.276100 2.706000 -1.161600 H 28 XO 0.000000
30 H -3.268700 3.317000 0.177700 H 29 XO 0.000000
31 H -4.080900 1.914500 1.986600 H 30 XO 0.000000
32 H -3.788300 0.157400 2.034200 H 31 XO 0.000000
33 H -2.447900 1.294400 2.331300 H 32 XO 0.000000
34 H -4.121400 1.035200 -1.678400 H 33 XO 0.000000
35 H -4.802000 -0.001700 -0.398100 H 34 XO 0.000000
36 H -5.056800 1.760800 -0.347900 H 35 XO 0.000000
37 H 1.417200 0.753200 -2.182100 H 36 XO 0.000000
38 H 1.895900 -0.939900 -2.286900 H 37 XO 0.000000
39 H 5.176400 0.991000 -2.540000 H 38 XO 0.000000
40 H 3.563800 0.542400 -3.017600 H 39 XO 0.000000
41 H 5.977000 1.763500 2.142700 H 40 XO 0.000000
42 H 5.356000 0.553400 3.109700 H 41 XO 0.000000
43 H -3.532000 -2.646700 0.683400 H 42 XO 0.000000
44 H 6.508200 0.202500 1.952000 H 43 XO 0.000000

@<TRIPOS>BOND
1 1 4 ar
2 1 5 ar
3 2 4 ar
4 2 6 ar
5 3 7 ar
6 3 17 ar
7 4 15 1
8 5 8 ar
9 5 11 1
10 6 8 ar
11 6 16 1
12 7 9 ar
13 7 15 1
14 8 21 1
15 9 18 ar
16 9 19 1
17 10 17 ar
18 10 18 ar
19 10 20 1
20 12 16 1
21 13 16 1
22 14 16 1
23 1 22 1
24 2 23 1
25 3 24 1
26 11 25 1
27 11 26 1
28 11 27 1
29 12 28 1
30 12 29 1
31 12 30 1
32 13 31 1
33 13 32 1
34 13 33 1
35 14 34 1
36 14 35 1
37 14 36 1
38 15 37 1
39 15 38 1
40 19 39 1
41 19 40 1
42 20 41 1
43 20 42 1
44 20 44 1
45 21 43 1

@<COSMOlogic>TOTAL_CHARGE
1.0
