# Created by COSMOvis on Mon Aug 09 22:24:21 CEST 2021
#
#

#
#

@<TRIPOS>MOLECULE
SAMPL8-19_micro004_c0
47 50
SMALL
USER_CHARGES

@<TRIPOS>ATOM
1 C 0.833600 -4.097800 -1.255900 C 0 XO 0.000000
2 N 1.452100 -3.059300 -0.443800 N 1 XO 0.000000
3 C 1.675300 -1.730600 -0.820300 C 2 XO 0.000000
4 C 1.424000 -1.044300 -2.007100 C 3 XO 0.000000
5 C 1.789900 0.310400 -2.056000 C 4 XO 0.000000
6 C 2.382500 0.949500 -0.955300 C 5 XO 0.000000
7 C 2.633100 0.259000 0.241000 C 6 XO 0.000000
8 C 2.268500 -1.083900 0.287400 C 7 XO 0.000000
9 N 2.367400 -2.040700 1.292800 N 8 XO 0.000000
10 C 1.871300 -3.248100 0.857800 C 9 XO 0.000000
11 C 1.764300 -4.437900 1.573700 C 10 XO 0.000000
12 S 2.570600 -4.617600 3.125600 S 11 XO 0.000000
13 C 1.205100 -4.502200 4.268300 C 12 XO 0.000000
14 N -0.035100 -4.305300 3.768000 N 13 XO 1.000000
15 C -1.120200 -4.217200 4.581500 C 14 XO 0.000000
16 C -0.971900 -4.335100 5.943900 C 15 XO 0.000000
17 C 0.366000 -4.568500 6.389000 C 16 XO 0.000000
18 N 1.422700 -4.640000 5.570100 N 17 XO 0.000000
19 O 0.564900 -4.729100 7.692700 O 18 XO 0.000000
20 C -2.137900 -4.250900 6.897800 C 19 XO 0.000000
21 C -2.109000 -3.020500 7.783100 C 20 XO 0.000000
22 C -2.053200 -3.107600 9.174900 C 21 XO 0.000000
23 N -2.045100 -2.030300 9.980200 N 22 XO 0.000000
24 C -2.093700 -0.843200 9.363800 C 23 XO 0.000000
25 N -2.155900 -0.621400 8.036600 N 24 XO 0.000000
26 C -2.161800 -1.716500 7.267300 C 25 XO 0.000000
27 O -2.083600 0.288500 10.097500 O 26 XO 0.000000
28 C -2.014500 0.150200 11.540200 C 27 XO 0.000000
29 H 1.499100 -4.968300 -1.334000 H 28 XO 0.000000
30 H 0.656800 -3.701500 -2.260200 H 29 XO 0.000000
31 H -0.126700 -4.409400 -0.821400 H 30 XO 0.000000
32 H 0.963600 -1.531400 -2.866900 H 31 XO 0.000000
33 H 1.606800 0.875000 -2.971300 H 32 XO 0.000000
34 H 2.654700 2.003400 -1.027200 H 33 XO 0.000000
35 H 3.092300 0.752100 1.098200 H 34 XO 0.000000
36 H 2.777300 -1.901600 2.212000 H 35 XO 0.000000
37 H 1.465400 -5.351300 1.064600 H 36 XO 0.000000
38 H -0.096000 -4.229100 2.735000 H 37 XO 0.000000
39 H -2.079200 -4.059800 4.090800 H 38 XO 0.000000
40 H 1.521400 -4.885000 7.855700 H 39 XO 0.000000
41 H -2.147000 -5.147600 7.535400 H 40 XO 0.000000
42 H -3.068400 -4.269500 6.311800 H 41 XO 0.000000
43 H -2.015600 -4.081100 9.672800 H 42 XO 0.000000
44 H -2.213300 -1.540700 6.188300 H 43 XO 0.000000
45 H -1.092600 -0.367200 11.835100 H 44 XO 0.000000
46 H -2.885200 -0.400800 11.917900 H 45 XO 0.000000
47 H -2.016200 1.176500 11.919600 H 46 XO 0.000000

@<TRIPOS>BOND
1 1 2 1
2 2 3 1
3 2 10 1
4 3 4 ar
5 3 8 ar
6 4 5 ar
7 5 6 ar
8 6 7 ar
9 7 8 ar
10 8 9 1
11 9 10 1
12 10 11 2
13 11 12 1
14 12 13 1
15 13 14 2
16 13 18 1
17 14 15 1
18 15 16 2
19 16 17 1
20 16 20 1
21 17 18 2
22 17 19 1
23 20 21 1
24 21 22 ar
25 21 26 ar
26 22 23 ar
27 23 24 ar
28 24 25 ar
29 24 27 1
30 25 26 ar
31 27 28 1
32 1 29 1
33 1 30 1
34 1 31 1
35 4 32 1
36 5 33 1
37 6 34 1
38 7 35 1
39 9 36 1
40 11 37 1
41 14 38 1
42 15 39 1
43 19 40 1
44 20 41 1
45 20 42 1
46 22 43 1
47 26 44 1
48 28 45 1
49 28 46 1
50 28 47 1

@<COSMOlogic>TOTAL_CHARGE
1.0
