# Created by COSMOvis on Mon Aug 09 22:24:23 CEST 2021
#
#

#
#

@<TRIPOS>MOLECULE
SAMPL8-5_micro007_c0
29 30
SMALL
USER_CHARGES

@<TRIPOS>ATOM
1 C 2.335100 -0.241900 0.145100 C 0 XO 0.000000
2 C 1.110900 -0.059600 0.797400 C 1 XO 0.000000
3 C -1.368200 -1.061100 6.722400 C 2 XO 0.000000
4 C 3.342100 -0.980400 0.778200 C 3 XO 0.000000
5 C 0.898500 -0.623600 2.057100 C 4 XO 0.000000
6 C -1.215100 -2.367500 6.252500 C 5 XO 0.000000
7 C -0.503700 -0.058000 6.276900 C 6 XO 0.000000
8 C 3.162900 -1.543800 2.050400 C 7 XO 0.000000
9 C 1.907600 -1.370400 2.692500 C 8 XO 0.000000
10 C 0.683200 -1.670000 4.826700 C 9 XO 0.000000
11 C -0.218800 -2.647700 5.319900 C 10 XO 0.000000
12 C 0.507000 -0.370200 5.369600 C 11 XO 0.000000
13 C 4.145600 -3.819800 2.773900 C 12 XO 0.000000
14 C 4.303800 -2.273600 2.724700 C 13 XO 0.000000
15 N 1.705900 -1.990900 3.940600 N 14 XO 0.000000
16 O 5.013300 -4.525400 2.188900 O 15 XO -1.000000
17 Cl -0.081500 -4.308500 4.721500 Cl 16 XO 0.000000
18 Cl 1.650700 0.910600 4.945100 Cl 17 XO 0.000000
19 H 2.509100 0.191700 -0.841300 H 18 XO 0.000000
20 H 0.311800 0.513600 0.322900 H 19 XO 0.000000
21 H -2.152700 -0.827000 7.442200 H 20 XO 0.000000
22 H 4.309000 -1.107400 0.284200 H 21 XO 0.000000
23 H -0.066200 -0.499900 2.552700 H 22 XO 0.000000
24 H -1.876100 -3.164400 6.592400 H 23 XO 0.000000
25 H -0.590500 0.960400 6.654800 H 24 XO 0.000000
26 H 5.244500 -2.031400 2.214100 H 25 XO 0.000000
27 H 4.380500 -1.927700 3.770500 H 26 XO 0.000000
28 H 2.108800 -2.960300 3.960400 H 27 XO 0.000000
29 O 3.140100 -4.270100 3.423900 O 28 XO 0.000000

@<TRIPOS>BOND
1 1 2 ar
2 1 4 ar
3 2 5 ar
4 3 6 ar
5 3 7 ar
6 4 8 ar
7 5 9 ar
8 6 11 ar
9 7 12 ar
10 8 9 ar
11 8 14 1
12 9 15 1
13 10 11 ar
14 10 12 ar
15 10 15 1
16 11 17 1
17 12 18 1
18 13 14 1
19 13 16 1
20 13 29 2
21 1 19 1
22 2 20 1
23 3 21 1
24 4 22 1
25 5 23 1
26 6 24 1
27 7 25 1
28 14 26 1
29 14 27 1
30 15 28 1

@<COSMOlogic>TOTAL_CHARGE
-1.0
