# Created by COSMOvis on Mon Aug 09 22:24:23 CEST 2021
#
#

#
#

@<TRIPOS>MOLECULE
SAMPL8-6_micro009_c0
29 30
SMALL
USER_CHARGES

@<TRIPOS>ATOM
1 C -2.682800 0.318900 2.187500 C 0 XO 0.000000
2 C -2.975900 0.217700 0.713000 C 1 XO 0.000000
3 C -4.270600 0.383600 0.222100 C 2 XO 0.000000
4 C -4.586200 0.294100 -1.145600 C 3 XO 0.000000
5 C -3.535000 0.042200 -2.022900 C 4 XO 0.000000
6 C -2.220300 -0.128400 -1.600100 C 5 XO 0.000000
7 C -1.922400 -0.050200 -0.216400 C 6 XO 0.000000
8 N -0.636200 -0.239100 0.242000 N 7 XO 0.000000
9 C 0.455400 -0.680300 -0.529600 C 8 XO 0.000000
10 C 1.750000 -0.362600 -0.201900 C 9 XO 0.000000
11 C 2.250500 0.524200 0.818300 C 10 XO 0.000000
12 C 3.628900 0.608600 0.879800 C 11 XO 0.000000
13 C 4.336900 -0.186800 -0.046400 C 12 XO 0.000000
14 C 5.732800 -0.276600 -0.212400 C 13 XO 0.000000
15 O 6.122000 -1.144000 -1.240100 O 14 XO 0.000000
16 O 6.617400 0.323300 0.450000 O 15 XO -1.000000
17 S 3.155500 -1.115300 -1.055000 S 16 XO 0.000000
18 Cl -3.876900 -0.058900 -3.772600 Cl 17 XO 0.000000
19 H -2.238900 -0.610500 2.582700 H 18 XO 0.000000
20 H -1.975300 1.135300 2.413100 H 19 XO 0.000000
21 H -3.602600 0.515800 2.752900 H 20 XO 0.000000
22 H -5.075600 0.586600 0.932700 H 21 XO 0.000000
23 H -5.608100 0.419100 -1.500200 H 22 XO 0.000000
24 H -1.426400 -0.295900 -2.325800 H 23 XO 0.000000
25 H -0.481600 -0.103100 1.238200 H 24 XO 0.000000
26 H 0.220300 -1.357100 -1.351500 H 25 XO 0.000000
27 H 1.584700 1.106000 1.455900 H 26 XO 0.000000
28 H 4.159800 1.254500 1.581500 H 27 XO 0.000000
29 H 7.100600 -1.121000 -1.249500 H 28 XO 0.000000

@<TRIPOS>BOND
1 1 2 1
2 2 3 ar
3 2 7 ar
4 3 4 ar
5 4 5 ar
6 5 6 ar
7 5 18 1
8 6 7 ar
9 7 8 1
10 8 9 1
11 9 10 2
12 10 11 1
13 10 17 1
14 11 12 2
15 12 13 1
16 13 14 2
17 13 17 1
18 14 15 1
19 14 16 1
20 1 19 1
21 1 20 1
22 1 21 1
23 3 22 1
24 4 23 1
25 6 24 1
26 8 25 1
27 9 26 1
28 11 27 1
29 12 28 1
30 15 29 1

@<COSMOlogic>TOTAL_CHARGE
-1.0
