# Created by COSMOvis on Mon Aug 09 22:24:22 CEST 2021
#
#

#
#

@<TRIPOS>MOLECULE
SAMPL8-21_extra001_c0
42 43
SMALL
USER_CHARGES

@<TRIPOS>ATOM
1 C 2.520700 1.821000 -0.814100 C 0 XO 0.000000
2 C 1.035100 0.339000 0.419200 C 1 XO 0.000000
3 C 1.324500 1.608600 -0.106200 C 2 XO 0.000000
4 C -1.020700 2.502000 -0.528600 C 3 XO 0.000000
5 C 3.454600 0.778700 -0.968300 C 4 XO 0.000000
6 C 1.960500 -0.697400 0.260400 C 5 XO 0.000000
7 C 3.166100 -0.491900 -0.441300 C 6 XO 0.000000
8 C -1.234300 2.102100 -1.835500 C 7 XO 0.000000
9 C -2.235700 2.676000 0.206300 C 8 XO 0.000000
10 C -3.441800 2.050800 -1.590000 C 9 XO 0.000000
11 C 4.985200 2.175100 -2.183500 C 10 XO 0.000000
12 C 0.618000 -2.303400 1.458800 C 11 XO 0.000000
13 C -3.366000 3.258900 2.232100 C 12 XO 0.000000
14 C 0.339700 2.754400 0.083900 C 13 XO 0.000000
15 N -2.423500 1.860700 -2.405100 N 14 XO 0.000000
16 N -3.444600 2.443200 -0.328800 N 15 XO 0.000000
17 N -0.097900 1.917500 -2.751500 N 16 XO 1.000000
18 N -4.769600 1.778400 -2.169100 N 17 XO 1.000000
19 O 4.068100 -1.508000 -0.598600 O 18 XO 0.000000
20 O 4.651800 0.892300 -1.615700 O 19 XO 0.000000
21 O 1.820400 -1.975300 0.732600 O 20 XO 0.000000
22 O -2.136500 3.083700 1.463500 O 21 XO 0.000000
23 H 2.753500 2.818500 -1.187100 H 22 XO 0.000000
24 H 0.110400 0.170800 0.970100 H 23 XO 0.000000
25 H 5.046100 2.949600 -1.404200 H 24 XO 0.000000
26 H 4.253000 2.470200 -2.950100 H 25 XO 0.000000
27 H 5.968100 2.041000 -2.646100 H 26 XO 0.000000
28 H 0.721300 -3.357100 1.735200 H 27 XO 0.000000
29 H -0.269400 -2.170200 0.822700 H 28 XO 0.000000
30 H 0.530100 -1.687400 2.365700 H 29 XO 0.000000
31 H -3.026900 3.591300 3.216300 H 30 XO 0.000000
32 H -3.901600 2.305300 2.302100 H 31 XO 0.000000
33 H -3.997200 4.018800 1.757100 H 32 XO 0.000000
34 H 0.200600 2.954600 1.154200 H 33 XO 0.000000
35 H 0.757000 3.677900 -0.347400 H 34 XO 0.000000
36 H 0.769900 1.635200 -2.238500 H 35 XO 0.000000
37 H 0.105300 2.783100 -3.275700 H 36 XO 0.000000
38 H -5.437500 2.531400 -1.945100 H 37 XO 0.000000
39 H -5.165100 0.897900 -1.802900 H 38 XO 0.000000
40 H 3.691400 -2.300400 -0.160500 H 39 XO 0.000000
41 H -0.316400 1.190700 -3.450800 H 40 XO 0.000000
42 H -4.706500 1.691800 -3.194100 H 41 XO 0.000000

@<TRIPOS>BOND
1 1 3 ar
2 1 5 ar
3 2 3 ar
4 2 6 ar
5 3 14 1
6 4 8 ar
7 4 9 ar
8 4 14 1
9 5 7 ar
10 5 20 1
11 6 7 ar
12 6 21 1
13 7 19 1
14 8 15 ar
15 8 17 1
16 9 16 ar
17 9 22 1
18 10 15 ar
19 10 16 ar
20 10 18 1
21 11 20 1
22 12 21 1
23 13 22 1
24 1 23 1
25 2 24 1
26 11 25 1
27 11 26 1
28 11 27 1
29 12 28 1
30 12 29 1
31 12 30 1
32 13 31 1
33 13 32 1
34 13 33 1
35 14 34 1
36 14 35 1
37 17 36 1
38 17 37 1
39 17 41 1
40 18 38 1
41 18 39 1
42 18 42 1
43 19 40 1

@<COSMOlogic>TOTAL_CHARGE
2.0
