# Created by COSMOvis on Mon Aug 09 22:24:23 CEST 2021
#
#

#
#

@<TRIPOS>MOLECULE
SAMPL8-3_micro000_c0
32 33
SMALL
USER_CHARGES

@<TRIPOS>ATOM
1 C -2.206400 2.459600 6.472400 C 0 XO 0.000000
2 C -1.078900 2.902100 5.699100 C 1 XO 0.000000
3 C -2.628700 1.292900 5.902000 C 2 XO 0.000000
4 C -0.885500 1.977200 4.708100 C 3 XO 0.000000
5 C 1.277100 -0.346400 0.047600 C 4 XO 0.000000
6 C -0.941100 1.380500 0.071500 C 5 XO 0.000000
7 C 0.308200 -0.467700 -0.916600 C 6 XO 0.000000
8 C -0.789400 0.467100 -0.923700 C 7 XO 0.000000
9 C 1.207600 0.658500 1.060200 C 8 XO 0.000000
10 C -0.063300 1.400100 1.237400 C 9 XO 0.000000
11 C 2.406700 0.984500 1.711300 C 10 XO 0.000000
12 C 0.104000 1.854400 3.598000 C 11 XO 0.000000
13 N -0.548600 1.985300 2.302900 N 12 XO 0.000000
14 N 0.639300 -1.135800 -3.690000 N 13 XO 0.000000
15 O 1.824500 -2.441400 -1.861400 O 14 XO 0.000000
16 O -0.731500 -2.620400 -2.143600 O 15 XO 0.000000
17 O -1.834900 0.977300 4.821800 O 16 XO 0.000000
18 O 2.560500 2.178000 2.271600 O 17 XO 0.000000
19 O 3.420200 0.122300 1.693400 O 18 XO 0.000000
20 S 0.508600 -1.790600 -2.131500 S 19 XO 0.000000
21 Cl -1.973500 0.445500 -2.242100 Cl 20 XO 0.000000
22 H -2.643300 2.947300 7.339100 H 21 XO 0.000000
23 H -0.485500 3.797900 5.858900 H 22 XO 0.000000
24 H -3.428300 0.592500 6.117800 H 23 XO 0.000000
25 H 2.154000 -0.991000 -0.005300 H 24 XO 0.000000
26 H -1.798200 2.053600 0.083000 H 25 XO 0.000000
27 H 0.858400 2.645600 3.746700 H 26 XO 0.000000
28 H 0.650300 0.892200 3.687900 H 27 XO 0.000000
29 H 1.452100 -0.513500 -3.752500 H 28 XO 0.000000
30 H -0.215500 -0.627900 -3.943200 H 29 XO 0.000000
31 H 3.397900 2.254800 2.775400 H 30 XO 0.000000
32 H 4.275400 0.537100 1.930200 H 31 XO 0.000000

@<TRIPOS>BOND
1 1 2 ar
2 1 3 ar
3 2 4 ar
4 3 17 ar
5 4 12 1
6 4 17 ar
7 5 7 2
8 5 9 1
9 6 8 2
10 6 10 1
11 7 8 1
12 7 20 1
13 8 21 1
14 9 10 1
15 9 11 2
16 10 13 2
17 11 18 1
18 11 19 1
19 12 13 1
20 14 20 1
21 15 20 2
22 16 20 2
23 1 22 1
24 2 23 1
25 3 24 1
26 5 25 1
27 6 26 1
28 12 27 1
29 12 28 1
30 14 29 1
31 14 30 1
32 18 31 1
33 19 32 1

@<COSMOlogic>TOTAL_CHARGE
0.0
