# Created by COSMOvis on Mon Aug 09 22:24:23 CEST 2021
#
#

#
#

@<TRIPOS>MOLECULE
SAMPL8-7_micro000_c0
35 37
SMALL
USER_CHARGES

@<TRIPOS>ATOM
1 C 2.407900 -3.118300 -3.948600 C 0 XO 0.000000
2 C 1.311600 -3.939900 -3.654100 C 1 XO 0.000000
3 C 0.157800 -2.097900 -2.490400 C 2 XO 0.000000
4 C 2.385100 -1.786100 -3.519900 C 3 XO 0.000000
5 C 1.260400 -1.300400 -2.795900 C 4 XO 0.000000
6 C 0.220300 -3.420700 -2.942300 C 5 XO 0.000000
7 C 2.795600 0.284300 -3.081900 C 6 XO 0.000000
8 C 1.261600 0.289900 0.424400 C 7 XO 0.000000
9 C -0.266600 2.248300 0.059900 C 8 XO 0.000000
10 C 1.363900 0.737300 1.882700 C 9 XO 0.000000
11 C -0.073100 2.587200 1.539100 C 10 XO 0.000000
12 C 0.936000 1.468100 -0.503000 C 11 XO 0.000000
13 C 0.618900 1.015100 -1.947400 C 12 XO 0.000000
14 N 3.329400 -0.779200 -3.677800 N 13 XO 0.000000
15 N 1.544200 0.037100 -2.522900 N 14 XO 0.000000
16 N 3.341800 1.535800 -3.047600 N 15 XO 0.000000
17 O 0.165000 1.405100 2.323200 O 16 XO 0.000000
18 O 2.121000 2.322600 -0.515700 O 17 XO 0.000000
19 Br -1.274900 -4.589100 -2.560000 Br 18 XO 0.000000
20 H 3.259500 -3.513400 -4.504800 H 19 XO 0.000000
21 H 1.307400 -4.979800 -3.979300 H 20 XO 0.000000
22 H -0.703500 -1.726200 -1.936400 H 21 XO 0.000000
23 H 2.207800 -0.180300 0.116400 H 22 XO 0.000000
24 H 0.468400 -0.468100 0.330000 H 23 XO 0.000000
25 H -1.175400 1.637500 -0.053900 H 24 XO 0.000000
26 H -0.422200 3.174500 -0.519400 H 25 XO 0.000000
27 H 1.490500 -0.129100 2.544800 H 26 XO 0.000000
28 H 2.228900 1.412200 2.015100 H 27 XO 0.000000
29 H 0.768600 3.293000 1.671600 H 28 XO 0.000000
30 H -0.979400 3.052100 1.948300 H 29 XO 0.000000
31 H 0.595000 1.901800 -2.599900 H 30 XO 0.000000
32 H -0.381500 0.563500 -1.976500 H 31 XO 0.000000
33 H 3.137800 2.064500 -2.190600 H 32 XO 0.000000
34 H 1.828300 3.238500 -0.684000 H 33 XO 0.000000
35 H 4.317400 1.569800 -3.336400 H 34 XO 0.000000

@<TRIPOS>BOND
1 1 2 ar
2 1 4 ar
3 2 6 ar
4 3 5 ar
5 3 6 ar
6 4 5 ar
7 4 14 ar
8 5 15 ar
9 6 19 1
10 7 14 ar
11 7 15 ar
12 7 16 1
13 8 10 1
14 8 12 1
15 9 11 1
16 9 12 1
17 10 17 1
18 11 17 1
19 12 13 1
20 12 18 1
21 13 15 1
22 1 20 1
23 2 21 1
24 3 22 1
25 8 23 1
26 8 24 1
27 9 25 1
28 9 26 1
29 10 27 1
30 10 28 1
31 11 29 1
32 11 30 1
33 13 31 1
34 13 32 1
35 16 33 1
36 16 35 1
37 18 34 1

@<COSMOlogic>TOTAL_CHARGE
0.0
