# Created by COSMOvis on Mon Aug 09 22:24:23 CEST 2021
#
#

#
#

@<TRIPOS>MOLECULE
SAMPL8-3_micro010_c0
31 32
SMALL
USER_CHARGES

@<TRIPOS>ATOM
1 C -1.979000 -5.946600 0.077600 C 0 XO 0.000000
2 C -1.535300 -5.212900 1.230500 C 1 XO 0.000000
3 C 2.221900 -0.390600 0.018600 C 2 XO 0.000000
4 C 1.166000 -2.541300 1.435200 C 3 XO 0.000000
5 C -2.578500 -5.039200 -0.747700 C 4 XO 0.000000
6 C 0.848300 -0.415300 0.239000 C 5 XO 0.000000
7 C 0.287800 -1.524200 0.966200 C 6 XO 0.000000
8 C 3.083900 -1.395200 0.477300 C 7 XO 0.000000
9 C 2.525200 -2.472800 1.190100 C 8 XO 0.000000
10 C -1.896400 -3.906800 1.033600 C 9 XO 0.000000
11 C 0.008600 0.733200 -0.315700 C 10 XO 0.000000
12 C -1.759300 -2.663900 1.858300 C 11 XO 0.000000
13 N 5.785400 -1.270800 1.442900 N 12 XO 0.000000
14 N -1.044900 -1.570600 1.209700 N 13 XO 0.000000
15 O -1.258400 0.684900 -0.123200 O 14 XO -1.000000
16 O 5.235300 -2.498300 -0.716200 O 15 XO 0.000000
17 O 5.032300 0.065900 -0.584100 O 16 XO 0.000000
18 O -2.543200 -3.784200 -0.181400 O 17 XO 0.000000
19 O 0.611500 1.657700 -0.930000 O 18 XO 0.000000
20 S 4.827400 -1.275600 0.039700 S 19 XO 0.000000
21 Cl 3.534700 -3.784500 1.821800 Cl 20 XO 0.000000
22 H -1.861600 -7.009800 -0.111100 H 21 XO 0.000000
23 H -1.014000 -5.608400 2.097700 H 22 XO 0.000000
24 H 2.628600 0.454800 -0.536500 H 23 XO 0.000000
25 H 0.774500 -3.388700 1.993700 H 24 XO 0.000000
26 H -3.054800 -5.101700 -1.720100 H 25 XO 0.000000
27 H -2.754100 -2.273300 2.117700 H 26 XO 0.000000
28 H -1.274600 -2.940800 2.808000 H 27 XO 0.000000
29 H 5.529700 -0.481500 2.046100 H 28 XO 0.000000
30 H 5.676100 -2.152500 1.956100 H 29 XO 0.000000
31 H -1.550600 -0.776200 0.770400 H 30 XO 0.000000

@<TRIPOS>BOND
1 1 2 ar
2 1 5 ar
3 2 10 ar
4 3 6 ar
5 3 8 ar
6 4 7 ar
7 4 9 ar
8 5 18 ar
9 6 7 ar
10 6 11 1
11 7 14 1
12 8 9 ar
13 8 20 1
14 9 21 1
15 10 12 1
16 10 18 ar
17 11 15 1
18 11 19 2
19 12 14 1
20 13 20 1
21 16 20 2
22 17 20 2
23 1 22 1
24 2 23 1
25 3 24 1
26 4 25 1
27 5 26 1
28 12 27 1
29 12 28 1
30 13 29 1
31 13 30 1
32 14 31 1

@<COSMOlogic>TOTAL_CHARGE
-1.0
