# Created by COSMOvis on Mon Aug 09 22:24:20 CEST 2021
#
#

#
#

@<TRIPOS>MOLECULE
SAMPL8-11_micro000_c0
42 44
SMALL
USER_CHARGES

@<TRIPOS>ATOM
1 C 3.509400 -1.324100 -2.839700 C 0 XO 0.000000
2 C 3.077700 -0.086900 -0.383600 C 1 XO 0.000000
3 C 1.967100 -0.228900 -1.278600 C 2 XO 0.000000
4 C 2.254300 -0.803100 -2.523600 C 3 XO 0.000000
5 C 4.310900 -0.695500 -0.774400 C 4 XO 0.000000
6 C 5.396800 -0.708100 0.158500 C 5 XO 0.000000
7 C 5.260900 -0.165300 1.394600 C 6 XO 0.000000
8 C 4.038400 0.491000 1.808800 C 7 XO 0.000000
9 C -2.022900 1.173200 -0.381000 C 8 XO 0.000000
10 C -2.751300 -1.235700 -0.605300 C 9 XO 0.000000
11 C -3.200300 1.446400 0.566300 C 10 XO 0.000000
12 C -3.924300 -0.957600 0.346900 C 11 XO 0.000000
13 C -1.564200 -0.294600 -0.321600 C 12 XO 0.000000
14 C -4.385000 0.511200 0.296000 C 13 XO 0.000000
15 C 1.855000 1.415200 1.226600 C 14 XO 0.000000
16 C -0.441200 -0.596300 -1.302900 C 15 XO 0.000000
17 N 4.518700 -1.295200 -1.976000 N 16 XO 0.000000
18 N 2.995700 0.553100 0.852900 N 17 XO 0.000000
19 N -5.494400 0.826600 1.222400 N 18 XO 0.000000
20 O 3.894800 1.012300 2.932700 O 19 XO 0.000000
21 O 0.735600 0.201600 -0.919500 O 20 XO 0.000000
22 F 1.277000 -0.876600 -3.468500 F 21 XO 0.000000
23 H 3.674200 -1.774100 -3.821900 H 22 XO 0.000000
24 H 6.327100 -1.182100 -0.159300 H 23 XO 0.000000
25 H 6.069600 -0.181300 2.124600 H 24 XO 0.000000
26 H -1.184800 1.844300 -0.140400 H 25 XO 0.000000
27 H -2.326000 1.405400 -1.418400 H 26 XO 0.000000
28 H -3.084900 -1.092300 -1.648900 H 27 XO 0.000000
29 H -2.433000 -2.286800 -0.516600 H 28 XO 0.000000
30 H -2.871500 1.305700 1.612900 H 29 XO 0.000000
31 H -3.528900 2.493600 0.474800 H 30 XO 0.000000
32 H -4.771900 -1.619300 0.103700 H 31 XO 0.000000
33 H -3.621700 -1.192000 1.383900 H 32 XO 0.000000
34 H -1.192900 -0.511500 0.696600 H 33 XO 0.000000
35 H -4.757300 0.717900 -0.724100 H 34 XO 0.000000
36 H 1.016900 0.821500 1.609800 H 35 XO 0.000000
37 H 2.209800 2.081400 2.017800 H 36 XO 0.000000
38 H 1.531700 1.993300 0.358700 H 37 XO 0.000000
39 H -0.162000 -1.660000 -1.269100 H 38 XO 0.000000
40 H -0.736300 -0.329000 -2.327300 H 39 XO 0.000000
41 H -6.274100 0.185400 1.041900 H 40 XO 0.000000
42 H -5.192500 0.616600 2.180900 H 41 XO 0.000000

@<TRIPOS>BOND
1 1 4 ar
2 1 17 ar
3 2 3 ar
4 2 5 ar
5 2 18 1
6 3 4 ar
7 3 21 1
8 4 22 1
9 5 6 1
10 5 17 ar
11 6 7 2
12 7 8 1
13 8 18 1
14 8 20 2
15 9 11 1
16 9 13 1
17 10 12 1
18 10 13 1
19 11 14 1
20 12 14 1
21 13 16 1
22 14 19 1
23 15 18 1
24 16 21 1
25 1 23 1
26 6 24 1
27 7 25 1
28 9 26 1
29 9 27 1
30 10 28 1
31 10 29 1
32 11 30 1
33 11 31 1
34 12 32 1
35 12 33 1
36 13 34 1
37 14 35 1
38 15 36 1
39 15 37 1
40 15 38 1
41 16 39 1
42 16 40 1
43 19 41 1
44 19 42 1

@<COSMOlogic>TOTAL_CHARGE
0.0
