# Created by COSMOvis on Mon Aug 09 22:24:22 CEST 2021
#
#

#
#

@<TRIPOS>MOLECULE
SAMPL8-20_extra003_c0
25 27
SMALL
USER_CHARGES

@<TRIPOS>ATOM
1 C -4.460000 -0.106200 0.413400 C 0 XO 0.000000
2 C -3.696100 0.699400 1.266800 C 1 XO 0.000000
3 C -3.818100 -0.907200 -0.539100 C 2 XO 0.000000
4 C -2.301500 0.700900 1.169100 C 3 XO 0.000000
5 C -2.422700 -0.914400 -0.629400 C 4 XO 0.000000
6 C 2.062400 -1.113300 -0.011100 C 5 XO 0.000000
7 C 2.606500 0.171100 -0.123300 C 6 XO 0.000000
8 C -1.645600 -0.111300 0.225400 C 7 XO 0.000000
9 C 0.680700 -1.205600 0.108100 C 8 XO 0.000000
10 C -0.159600 -0.045500 0.115200 C 9 XO 0.000000
11 C 1.708200 1.301700 -0.075000 C 10 XO 0.000000
12 C 3.879500 0.784300 -0.255500 C 11 XO 0.000000
13 N 0.361000 1.188700 0.039400 N 12 XO 0.000000
14 N 3.735400 2.122400 -0.279300 N 13 XO -1.000000
15 N 2.387500 2.466800 -0.163600 N 14 XO 0.000000
16 N 5.147200 0.172800 -0.260800 N 15 XO 0.000000
17 Cl -0.008800 -2.834900 0.353400 Cl 16 XO 0.000000
18 H -5.549200 -0.106100 0.486400 H 17 XO 0.000000
19 H -4.187800 1.327500 2.012200 H 18 XO 0.000000
20 H -4.406300 -1.527100 -1.218600 H 19 XO 0.000000
21 H -1.706100 1.334000 1.829000 H 20 XO 0.000000
22 H -1.935400 -1.534200 -1.383100 H 21 XO 0.000000
23 H 2.678200 -2.014500 0.002500 H 22 XO 0.000000
24 H 5.869700 0.821000 -0.580800 H 23 XO 0.000000
25 H 5.181000 -0.670400 -0.835500 H 24 XO 0.000000

@<TRIPOS>BOND
1 1 2 ar
2 1 3 ar
3 2 4 ar
4 3 5 ar
5 4 8 ar
6 5 8 ar
7 6 7 ar
8 6 9 ar
9 7 11 ar
10 7 12 ar
11 8 10 1
12 9 10 ar
13 9 17 1
14 10 13 ar
15 11 13 ar
16 11 15 ar
17 12 14 ar
18 12 16 1
19 14 15 ar
20 1 18 1
21 2 19 1
22 3 20 1
23 4 21 1
24 5 22 1
25 6 23 1
26 16 24 1
27 16 25 1

@<COSMOlogic>TOTAL_CHARGE
-1.0
