# Created by COSMOvis on Mon Aug 09 22:24:21 CEST 2021
#
#

#
#

@<TRIPOS>MOLECULE
SAMPL8-15_micro000_c0
31 33
SMALL
USER_CHARGES

@<TRIPOS>ATOM
1 C -2.049200 1.344500 2.356400 C 0 XO 0.000000
2 C -2.638100 0.410500 1.331400 C 1 XO 0.000000
3 C -3.959800 -0.046900 1.439700 C 2 XO 0.000000
4 C -4.519500 -0.915300 0.494800 C 3 XO 0.000000
5 C -3.743300 -1.343900 -0.588600 C 4 XO 0.000000
6 C -2.421000 -0.912600 -0.712900 C 5 XO 0.000000
7 C -1.852100 -0.039500 0.237700 C 6 XO 0.000000
8 N -0.568600 0.499500 0.068400 N 7 XO 0.000000
9 C 0.490100 -0.235400 -0.068000 C 8 XO 0.000000
10 C 1.797600 0.396000 -0.348800 C 9 XO 0.000000
11 C 1.962600 1.788100 -0.456600 C 10 XO 0.000000
12 C 3.211300 2.337200 -0.735100 C 11 XO 0.000000
13 C 4.325300 1.498400 -0.914700 C 12 XO 0.000000
14 C 4.191700 0.116500 -0.814100 C 13 XO 0.000000
15 C 2.929800 -0.428200 -0.531000 C 14 XO 0.000000
16 N 2.762400 -1.811900 -0.416100 N 15 XO 0.000000
17 C 1.541700 -2.303100 -0.100300 C 16 XO 0.000000
18 N 0.459600 -1.635100 0.075900 N 17 XO 0.000000
19 Cl 1.511000 -4.067600 0.084600 Cl 18 XO 0.000000
20 H -1.261600 0.850100 2.947000 H 19 XO 0.000000
21 H -1.574200 2.211700 1.872800 H 20 XO 0.000000
22 H -2.820600 1.702400 3.051600 H 21 XO 0.000000
23 H -4.564500 0.293800 2.284500 H 22 XO 0.000000
24 H -5.553600 -1.248200 0.601000 H 23 XO 0.000000
25 H -4.166700 -2.014300 -1.339700 H 24 XO 0.000000
26 H -1.815100 -1.236500 -1.560700 H 25 XO 0.000000
27 H 1.087400 2.422500 -0.315600 H 26 XO 0.000000
28 H 3.326000 3.419000 -0.814400 H 27 XO 0.000000
29 H 5.304000 1.927800 -1.133400 H 28 XO 0.000000
30 H 5.050300 -0.543100 -0.949500 H 29 XO 0.000000
31 H 3.557200 -2.436100 -0.546200 H 30 XO 0.000000

@<TRIPOS>BOND
1 1 2 1
2 2 3 ar
3 2 7 ar
4 3 4 ar
5 4 5 ar
6 5 6 ar
7 6 7 ar
8 7 8 1
9 8 9 2
10 9 10 1
11 9 18 1
12 10 11 ar
13 10 15 ar
14 11 12 ar
15 12 13 ar
16 13 14 ar
17 14 15 ar
18 15 16 1
19 16 17 1
20 17 18 2
21 17 19 1
22 1 20 1
23 1 21 1
24 1 22 1
25 3 23 1
26 4 24 1
27 5 25 1
28 6 26 1
29 11 27 1
30 12 28 1
31 13 29 1
32 14 30 1
33 16 31 1

@<COSMOlogic>TOTAL_CHARGE
0.0
