# Created by COSMOvis on Mon Aug 09 22:24:20 CEST 2021
#
#

#
#

@<TRIPOS>MOLECULE
SAMPL8-12_extra005_c0
42 44
SMALL
USER_CHARGES

@<TRIPOS>ATOM
1 C -4.239800 0.435100 1.163000 C 0 XO 0.000000
2 C -4.201200 0.275600 -1.238200 C 1 XO 0.000000
3 C -2.846900 0.558500 1.178700 C 2 XO 0.000000
4 C -2.808800 0.398700 -1.225700 C 3 XO 0.000000
5 C -0.474500 -1.914900 0.142800 C 4 XO 0.000000
6 C -4.943700 0.294100 -0.044900 C 5 XO 0.000000
7 C -2.111600 0.542100 -0.016100 C 6 XO 0.000000
8 C 0.149300 -0.654300 0.062100 C 7 XO 0.000000
9 C 1.540200 -0.756700 0.050700 C 8 XO 0.000000
10 C 1.532000 -3.019700 0.178300 C 9 XO 0.000000
11 C 3.233100 0.674400 1.217700 C 10 XO 0.000000
12 C 3.242000 0.522300 -1.275300 C 11 XO 0.000000
13 C 4.053300 1.947100 1.068500 C 12 XO 0.000000
14 C 4.061100 1.804300 -1.275200 C 13 XO 0.000000
15 C -6.449900 0.198800 -0.063100 C 14 XO 0.000000
16 C -0.601400 0.667600 -0.000800 C 15 XO 0.000000
17 N 0.173700 -3.078500 0.200400 N 16 XO 0.000000
18 N 2.247800 -1.867400 0.104300 N 17 XO 0.000000
19 N 2.369700 0.483900 -0.025500 N 18 XO 1.000000
20 N 2.216300 -4.178900 0.236100 N 19 XO 0.000000
21 O 4.878600 1.908600 -0.102400 O 20 XO 0.000000
22 H -4.789900 0.452400 2.107200 H 21 XO 0.000000
23 H -4.720800 0.166600 -2.193500 H 22 XO 0.000000
24 H -2.326500 0.671300 2.133100 H 23 XO 0.000000
25 H -2.258000 0.385000 -2.169700 H 24 XO 0.000000
26 H -1.565700 -1.971300 0.160500 H 25 XO 0.000000
27 H 3.864700 -0.217700 1.285800 H 26 XO 0.000000
28 H 2.561300 0.725200 2.083000 H 27 XO 0.000000
29 H 2.576700 0.467300 -2.145300 H 28 XO 0.000000
30 H 3.873700 -0.371200 -1.230800 H 29 XO 0.000000
31 H 4.718500 2.039400 1.935400 H 30 XO 0.000000
32 H 3.392900 2.834300 1.038300 H 31 XO 0.000000
33 H 3.401000 2.688100 -1.357200 H 32 XO 0.000000
34 H 4.732800 1.791100 -2.142000 H 33 XO 0.000000
35 H -6.905000 1.197900 -0.162600 H 34 XO 0.000000
36 H -6.803100 -0.405600 -0.910200 H 35 XO 0.000000
37 H -6.834800 -0.243800 0.865900 H 36 XO 0.000000
38 H -0.312400 1.289500 0.863600 H 37 XO 0.000000
39 H -0.291000 1.218000 -0.905800 H 38 XO 0.000000
40 H 1.716900 -5.060500 0.278200 H 39 XO 0.000000
41 H 3.229800 -4.180900 0.208100 H 40 XO 0.000000
42 H 1.719300 1.284100 -0.077100 H 41 XO 0.000000

@<TRIPOS>BOND
1 1 3 ar
2 1 6 ar
3 2 4 ar
4 2 6 ar
5 3 7 ar
6 4 7 ar
7 5 8 ar
8 5 17 ar
9 6 15 1
10 7 16 1
11 8 9 ar
12 8 16 1
13 9 18 ar
14 9 19 1
15 10 17 ar
16 10 18 ar
17 10 20 1
18 11 13 1
19 11 19 1
20 12 14 1
21 12 19 1
22 13 21 1
23 14 21 1
24 1 22 1
25 2 23 1
26 3 24 1
27 4 25 1
28 5 26 1
29 11 27 1
30 11 28 1
31 12 29 1
32 12 30 1
33 13 31 1
34 13 32 1
35 14 33 1
36 14 34 1
37 15 35 1
38 15 36 1
39 15 37 1
40 16 38 1
41 16 39 1
42 19 42 1
43 20 40 1
44 20 41 1

@<COSMOlogic>TOTAL_CHARGE
1.0
