# Created by COSMOvis on Mon Aug 09 22:24:21 CEST 2021
#
#

#
#

@<TRIPOS>MOLECULE
SAMPL8-14_micro021_c0
42 43
SMALL
USER_CHARGES

@<TRIPOS>ATOM
1 C -0.818100 -2.860400 -1.990400 C 0 XO 0.000000
2 C -0.741500 -1.747400 -0.971900 C 1 XO 0.000000
3 C 0.424100 -1.522700 -0.231600 C 2 XO 0.000000
4 C 0.502500 -0.493600 0.712300 C 3 XO 0.000000
5 C -0.625800 0.317200 0.896500 C 4 XO 0.000000
6 C -1.826600 0.148200 0.184600 C 5 XO 0.000000
7 C -1.857500 -0.909000 -0.755700 C 6 XO 0.000000
8 O -3.015200 -1.116900 -1.483400 O 7 XO 0.000000
9 C -3.039000 1.073900 0.421200 C 8 XO 0.000000
10 C -3.404000 1.818900 -0.887200 C 9 XO 0.000000
11 C -2.748400 2.144400 1.492500 C 10 XO 0.000000
12 C -4.251500 0.245500 0.914100 C 11 XO 0.000000
13 C 1.759100 -0.281800 1.553200 C 12 XO 0.000000
14 C 3.066500 -0.343200 0.803700 C 13 XO 0.000000
15 C 3.993100 -1.352100 1.014200 C 14 XO 0.000000
16 N 5.200800 -1.500500 0.418200 N 15 XO 0.000000
17 C 5.559700 -0.545500 -0.499900 C 16 XO 0.000000
18 N 4.666100 0.503300 -0.745500 N 17 XO 0.000000
19 C 3.416500 0.684000 -0.151100 C 18 XO 0.000000
20 N 2.726200 1.742700 -0.513000 N 19 XO -1.000000
21 N 6.691500 -0.534700 -1.175300 N 20 XO 0.000000
22 H -1.019800 -2.480500 -3.006700 H 21 XO 0.000000
23 H 0.130800 -3.409700 -2.031900 H 22 XO 0.000000
24 H -1.608800 -3.591400 -1.749600 H 23 XO 0.000000
25 H 1.291700 -2.165600 -0.404000 H 24 XO 0.000000
26 H -0.557900 1.120800 1.631300 H 25 XO 0.000000
27 H -2.876300 -1.870400 -2.088100 H 26 XO 0.000000
28 H -3.668900 1.121900 -1.691200 H 27 XO 0.000000
29 H -2.559400 2.437800 -1.226700 H 28 XO 0.000000
30 H -4.262100 2.485500 -0.708600 H 29 XO 0.000000
31 H -3.642500 2.772700 1.619600 H 30 XO 0.000000
32 H -2.513600 1.698000 2.470300 H 31 XO 0.000000
33 H -1.916600 2.804100 1.203500 H 32 XO 0.000000
34 H -4.015600 -0.256300 1.865400 H 33 XO 0.000000
35 H -5.112000 0.910800 1.087400 H 34 XO 0.000000
36 H -4.546000 -0.517100 0.183400 H 35 XO 0.000000
37 H 1.791000 -1.047100 2.348500 H 36 XO 0.000000
38 H 1.658500 0.686500 2.076800 H 37 XO 0.000000
39 H 3.745100 -2.132100 1.746500 H 38 XO 0.000000
40 H 4.954000 1.204200 -1.427900 H 39 XO 0.000000
41 H 1.824200 1.729000 -0.024500 H 40 XO 0.000000
42 H 7.225400 -1.361000 -0.879400 H 41 XO 0.000000

@<TRIPOS>BOND
1 1 2 1
2 2 3 ar
3 2 7 ar
4 3 4 ar
5 4 5 ar
6 4 13 1
7 5 6 ar
8 6 7 ar
9 6 9 1
10 7 8 1
11 9 10 1
12 9 11 1
13 9 12 1
14 13 14 1
15 14 15 1
16 14 19 2
17 15 16 2
18 16 17 1
19 17 18 1
20 17 21 2
21 18 19 1
22 19 20 1
23 1 22 1
24 1 23 1
25 1 24 1
26 3 25 1
27 5 26 1
28 8 27 1
29 10 28 1
30 10 29 1
31 10 30 1
32 11 31 1
33 11 32 1
34 11 33 1
35 12 34 1
36 12 35 1
37 12 36 1
38 13 37 1
39 13 38 1
40 15 39 1
41 18 40 1
42 20 41 1
43 21 42 1

@<COSMOlogic>TOTAL_CHARGE
-1.0
