# Created by COSMOvis on Mon Aug 09 22:24:21 CEST 2021
#
#

#
#

@<TRIPOS>MOLECULE
SAMPL8-19_extra001_c0
48 51
SMALL
USER_CHARGES

@<TRIPOS>ATOM
1 C -3.951600 -0.681200 8.297600 C 0 XO 0.000000
2 C -3.984300 0.337500 7.319200 C 1 XO 0.000000
3 C -2.751900 -1.235600 8.741700 C 2 XO 0.000000
4 C -2.817800 0.843700 6.746100 C 3 XO 0.000000
5 C 4.831500 -5.120800 13.810700 C 4 XO 0.000000
6 C 4.053000 -6.201900 11.856600 C 5 XO 0.000000
7 C 3.827000 -5.248300 12.865000 C 6 XO 0.000000
8 C -1.581600 -0.729200 8.169900 C 7 XO 0.000000
9 C -1.614900 0.290200 7.192800 C 8 XO 0.000000
10 C 0.514000 -0.258400 7.560700 C 9 XO 0.000000
11 C 6.087700 -6.789200 12.697900 C 10 XO 0.000000
12 C 1.786400 -3.158300 10.850100 C 11 XO 0.000000
13 C 2.617600 -3.251900 11.937600 C 12 XO 0.000000
14 C 3.577400 -2.190500 12.173600 C 13 XO 0.000000
15 C 2.674400 -1.164900 10.143200 C 14 XO 0.000000
16 C 0.108800 1.560500 5.849300 C 15 XO 0.000000
17 C 7.446500 -8.454100 11.673700 C 16 XO 0.000000
18 C 2.570300 -4.406000 12.909100 C 17 XO 0.000000
19 C 1.993800 -0.349400 7.530300 C 18 XO 0.000000
20 N 5.938700 -5.889700 13.712000 N 19 XO 1.000000
21 N 5.155400 -6.960400 11.769600 N 20 XO 0.000000
22 N -0.243000 -1.037400 8.353500 N 21 XO 1.000000
23 N 3.551200 -1.182200 11.182100 N 22 XO 0.000000
24 N -0.287600 0.558300 6.840500 N 23 XO 0.000000
25 N 1.781800 -2.113700 9.957100 N 24 XO 0.000000
26 O 4.378100 -2.116000 13.113500 O 25 XO 0.000000
27 O 7.218600 -7.461800 12.728100 O 26 XO 0.000000
28 S 2.813400 0.261400 9.079200 S 27 XO 0.000000
29 H -4.890700 -1.044400 8.716100 H 28 XO 0.000000
30 H -4.947400 0.739500 7.003300 H 29 XO 0.000000
31 H -2.726500 -2.022500 9.494800 H 30 XO 0.000000
32 H -2.848100 1.629600 5.992000 H 31 XO 0.000000
33 H 4.795800 -4.434100 14.653300 H 32 XO 0.000000
34 H 3.303300 -6.369800 11.079100 H 33 XO 0.000000
35 H 1.045600 -3.935900 10.651200 H 34 XO 0.000000
36 H -0.199200 2.554200 6.195400 H 35 XO 0.000000
37 H 1.193400 1.543800 5.716900 H 36 XO 0.000000
38 H -0.372000 1.329300 4.891600 H 37 XO 0.000000
39 H 8.426500 -8.874600 11.909700 H 38 XO 0.000000
40 H 7.453600 -7.959200 10.696600 H 39 XO 0.000000
41 H 6.666700 -9.222300 11.715900 H 40 XO 0.000000
42 H 1.702300 -5.037800 12.677500 H 41 XO 0.000000
43 H 2.433000 -4.022100 13.930800 H 42 XO 0.000000
44 H 2.314400 -1.385000 7.365500 H 43 XO 0.000000
45 H 2.423300 0.272400 6.738800 H 44 XO 0.000000
46 H 0.237000 -1.680300 9.025100 H 45 XO 0.000000
47 H 6.684500 -5.803700 14.408700 H 46 XO 0.000000
48 H 4.253900 -0.443800 11.275400 H 47 XO 0.000000

@<TRIPOS>BOND
1 1 2 ar
2 1 3 ar
3 2 4 ar
4 3 8 ar
5 4 9 ar
6 5 7 2
7 5 20 1
8 6 7 1
9 6 21 2
10 7 18 1
11 8 9 ar
12 8 22 1
13 9 24 1
14 10 19 1
15 10 22 2
16 10 24 1
17 11 20 2
18 11 21 1
19 11 27 1
20 12 13 2
21 12 25 1
22 13 14 1
23 13 18 1
24 14 23 1
25 14 26 2
26 15 23 1
27 15 25 2
28 15 28 1
29 16 24 1
30 17 27 1
31 19 28 1
32 1 29 1
33 2 30 1
34 3 31 1
35 4 32 1
36 5 33 1
37 6 34 1
38 12 35 1
39 16 36 1
40 16 37 1
41 16 38 1
42 17 39 1
43 17 40 1
44 17 41 1
45 18 42 1
46 18 43 1
47 19 44 1
48 19 45 1
49 20 47 1
50 22 46 1
51 23 48 1

@<COSMOlogic>TOTAL_CHARGE
2.0
