# Created by COSMOvis on Mon Aug 09 22:24:22 CEST 2021
#
#

#
#

@<TRIPOS>MOLECULE
SAMPL8-21_extra010_c0
42 43
SMALL
USER_CHARGES

@<TRIPOS>ATOM
1 C -6.991800 -1.401000 -1.156800 C 0 XO 0.000000
2 O -6.846000 -0.873800 -2.490400 O 1 XO 0.000000
3 C -5.597500 -0.900100 -3.060300 C 2 XO 0.000000
4 C -4.434100 -1.391900 -2.459400 C 3 XO 0.000000
5 C -3.222200 -1.345700 -3.164800 C 4 XO 0.000000
6 C -3.185600 -0.824000 -4.466900 C 5 XO 0.000000
7 C -4.355700 -0.330800 -5.072000 C 6 XO 0.000000
8 C -5.570900 -0.373900 -4.367300 C 7 XO 0.000000
9 O -6.714000 0.099800 -4.957300 O 8 XO 0.000000
10 O -4.421400 0.200000 -6.332000 O 9 XO 0.000000
11 C -3.200200 0.254900 -7.095000 C 10 XO 0.000000
12 C -1.935400 -1.846700 -2.521500 C 11 XO 0.000000
13 C -2.014300 -3.257000 -1.982600 C 12 XO 0.000000
14 C -2.329900 -4.347300 -2.825500 C 13 XO 0.000000
15 N -2.619700 -4.218500 -4.113000 N 14 XO 2.000000
16 N -2.334500 -5.629200 -2.305600 N 15 XO 0.000000
17 C -2.044500 -5.911000 -1.015600 C 16 XO 0.000000
18 N -2.057000 -7.145900 -0.559700 N 17 XO 0.000000
19 N -1.743100 -4.863700 -0.208200 N 18 XO 0.000000
20 C -1.715400 -3.558300 -0.660200 C 19 XO 0.000000
21 O -1.396500 -2.596900 0.184500 O 20 XO 0.000000
22 C -1.078000 -2.903400 1.577800 C 21 XO 0.000000
23 H -6.376500 -0.833600 -0.443000 H 22 XO 0.000000
24 H -8.051000 -1.283100 -0.908500 H 23 XO 0.000000
25 H -6.718900 -2.466300 -1.126200 H 24 XO 0.000000
26 H -4.465600 -1.796900 -1.448400 H 25 XO 0.000000
27 H -2.236000 -0.776700 -4.999700 H 26 XO 0.000000
28 H -7.441200 -0.017700 -4.310300 H 27 XO 0.000000
29 H -2.448000 0.884100 -6.595300 H 28 XO 0.000000
30 H -2.792100 -0.753300 -7.262900 H 29 XO 0.000000
31 H -3.476300 0.704100 -8.054400 H 30 XO 0.000000
32 H -1.641300 -1.180900 -1.699300 H 31 XO 0.000000
33 H -1.118900 -1.797100 -3.260500 H 32 XO 0.000000
34 H -2.858700 -5.015200 -4.699400 H 33 XO 0.000000
35 H -2.740100 -3.288000 -4.515700 H 34 XO 0.000000
36 H -2.571200 -6.409300 -2.921700 H 35 XO 0.000000
37 H -2.284900 -7.930600 -1.166000 H 36 XO 0.000000
38 H -1.838100 -7.353300 0.412200 H 37 XO 0.000000
39 H -1.527200 -5.064200 0.769800 H 38 XO 0.000000
40 H -0.855500 -1.933400 2.026700 H 39 XO 0.000000
41 H -1.947800 -3.353800 2.072900 H 40 XO 0.000000
42 H -0.192700 -3.550200 1.627500 H 41 XO 0.000000

@<TRIPOS>BOND
1 1 2 1
2 2 3 1
3 3 4 ar
4 3 8 ar
5 4 5 ar
6 5 6 ar
7 5 12 1
8 6 7 ar
9 7 8 ar
10 7 10 1
11 8 9 1
12 10 11 1
13 12 13 1
14 13 14 2
15 13 20 1
16 14 15 1
17 14 16 1
18 16 17 1
19 17 18 1
20 17 19 2
21 19 20 2
22 20 21 1
23 21 22 1
24 1 23 1
25 1 24 1
26 1 25 1
27 4 26 1
28 6 27 1
29 9 28 1
30 11 29 1
31 11 30 1
32 11 31 1
33 12 32 1
34 12 33 1
35 15 34 1
36 15 35 1
37 16 36 1
38 18 37 1
39 18 38 1
40 19 39 1
41 22 40 1
42 22 41 1
43 22 42 1

@<COSMOlogic>TOTAL_CHARGE
2.0
