# Created by COSMOvis on Mon Aug 09 22:24:21 CEST 2021
#
#

#
#

@<TRIPOS>MOLECULE
SAMPL8-18_micro000_c0
36 38
SMALL
USER_CHARGES

@<TRIPOS>ATOM
1 C 5.516900 2.061400 4.086600 C 0 XO 0.000000
2 C 4.612600 2.020800 5.162800 C 1 XO 0.000000
3 C 6.032000 0.878800 3.563600 C 2 XO 0.000000
4 C 4.226800 0.801300 5.710800 C 3 XO 0.000000
5 C 8.310400 -3.737300 2.931200 C 4 XO 0.000000
6 C 8.915300 -4.886300 2.395900 C 5 XO 0.000000
7 C 7.405100 -3.213800 0.743000 C 6 XO 0.000000
8 C 5.652800 -0.361900 4.104600 C 7 XO 0.000000
9 C 4.739400 -0.402600 5.191600 C 8 XO 0.000000
10 C 7.545900 -2.892200 2.112300 C 9 XO 0.000000
11 C 8.762800 -5.216900 1.048900 C 10 XO 0.000000
12 C 7.990200 -4.362600 0.211400 C 11 XO 0.000000
13 C 6.185900 -1.621700 3.573000 C 12 XO 0.000000
14 C 4.810200 -2.680600 5.270500 C 13 XO 0.000000
15 C 10.113400 -7.189000 1.254600 C 14 XO 0.000000
16 C 7.119300 -3.912700 -1.980800 C 15 XO 0.000000
17 N 4.318500 -1.607400 5.773100 N 16 XO 0.000000
18 N 5.703400 -2.762400 4.245900 N 17 XO 0.000000
19 N 6.995000 -1.673600 2.565600 N 18 XO 0.000000
20 O 9.312400 -6.314800 0.438200 O 19 XO 0.000000
21 O 7.890400 -4.749500 -1.097600 O 20 XO 0.000000
22 Cl 4.326900 -4.247800 5.927100 Cl 21 XO 0.000000
23 H 5.816700 3.020200 3.661400 H 22 XO 0.000000
24 H 4.210000 2.949000 5.571700 H 23 XO 0.000000
25 H 6.734700 0.893700 2.729800 H 24 XO 0.000000
26 H 3.525500 0.752500 6.545000 H 25 XO 0.000000
27 H 8.479100 -3.486300 3.979800 H 26 XO 0.000000
28 H 9.516300 -5.517800 3.049000 H 27 XO 0.000000
29 H 6.826400 -2.542400 0.110400 H 28 XO 0.000000
30 H 10.985500 -6.658500 1.667600 H 29 XO 0.000000
31 H 10.451400 -7.987000 0.585500 H 30 XO 0.000000
32 H 9.519800 -7.621500 2.075100 H 31 XO 0.000000
33 H 6.072000 -3.845300 -1.648600 H 32 XO 0.000000
34 H 7.164700 -4.401200 -2.959500 H 33 XO 0.000000
35 H 7.553100 -2.903300 -2.050400 H 34 XO 0.000000
36 H 6.020100 -3.677100 3.917100 H 35 XO 0.000000

@<TRIPOS>BOND
1 1 2 ar
2 1 3 ar
3 2 4 ar
4 3 8 ar
5 4 9 ar
6 5 6 ar
7 5 10 ar
8 6 11 ar
9 7 10 ar
10 7 12 ar
11 8 9 ar
12 8 13 1
13 9 17 1
14 10 19 1
15 11 12 ar
16 11 20 1
17 12 21 1
18 13 18 1
19 13 19 2
20 14 17 2
21 14 18 1
22 14 22 1
23 15 20 1
24 16 21 1
25 1 23 1
26 2 24 1
27 3 25 1
28 4 26 1
29 5 27 1
30 6 28 1
31 7 29 1
32 15 30 1
33 15 31 1
34 15 32 1
35 16 33 1
36 16 34 1
37 16 35 1
38 18 36 1

@<COSMOlogic>TOTAL_CHARGE
0.0
