# Created by COSMOvis on Mon Aug 09 22:24:21 CEST 2021
#
#

#
#

@<TRIPOS>MOLECULE
SAMPL8-18_extra001_c0
37 39
SMALL
USER_CHARGES

@<TRIPOS>ATOM
1 C 6.333700 1.826900 4.856100 C 0 XO 0.000000
2 C 5.156800 1.875100 5.619700 C 1 XO 0.000000
3 C 6.654700 0.683900 4.127600 C 2 XO 0.000000
4 C 4.295300 0.780800 5.657100 C 3 XO 0.000000
5 C 6.551000 -3.438900 0.964100 C 4 XO 0.000000
6 C 6.905500 -4.539200 0.168400 C 5 XO 0.000000
7 C 8.699500 -3.583000 2.091200 C 6 XO 0.000000
8 C 5.804100 -0.432400 4.150700 C 7 XO 0.000000
9 C 4.625400 -0.362100 4.922800 C 8 XO 0.000000
10 C 7.442000 -2.958500 1.935500 C 9 XO 0.000000
11 C 8.132600 -5.181200 0.338200 C 10 XO 0.000000
12 C 9.042400 -4.692600 1.322000 C 11 XO 0.000000
13 C 6.112000 -1.651500 3.395000 C 12 XO 0.000000
14 C 4.034400 -2.587000 4.282100 C 13 XO 0.000000
15 C 7.677300 -6.771000 -1.399300 C 14 XO 0.000000
16 C 11.177600 -4.906000 2.397300 C 15 XO 0.000000
17 N 3.767100 -1.479800 4.956100 N 16 XO 1.000000
18 N 5.119600 -2.677500 3.519200 N 17 XO 0.000000
19 N 7.185200 -1.808600 2.710300 N 18 XO 0.000000
20 O 8.561700 -6.260200 -0.382300 O 19 XO 0.000000
21 O 10.222400 -5.371900 1.423400 O 20 XO 0.000000
22 Cl 2.969400 -3.921700 4.398200 Cl 21 XO 0.000000
23 H 7.000400 2.689100 4.830800 H 22 XO 0.000000
24 H 4.908900 2.771700 6.188100 H 23 XO 0.000000
25 H 7.564500 0.635800 3.529800 H 24 XO 0.000000
26 H 3.377800 0.804800 6.246500 H 25 XO 0.000000
27 H 5.607000 -2.926000 0.773400 H 26 XO 0.000000
28 H 6.208400 -4.882600 -0.594600 H 27 XO 0.000000
29 H 9.388700 -3.185700 2.834600 H 28 XO 0.000000
30 H 8.205800 -7.618900 -1.846500 H 29 XO 0.000000
31 H 7.479200 -6.009700 -2.169100 H 30 XO 0.000000
32 H 6.727800 -7.115100 -0.961600 H 31 XO 0.000000
33 H 12.032500 -5.584400 2.314400 H 32 XO 0.000000
34 H 10.760600 -4.956600 3.414700 H 33 XO 0.000000
35 H 11.498000 -3.876700 2.175800 H 34 XO 0.000000
36 H 2.914000 -1.437400 5.517000 H 35 XO 0.000000
37 H 5.303500 -3.558500 3.025900 H 36 XO 0.000000

@<TRIPOS>BOND
1 1 2 ar
2 1 3 ar
3 2 4 ar
4 3 8 ar
5 4 9 ar
6 5 6 ar
7 5 10 ar
8 6 11 ar
9 7 10 ar
10 7 12 ar
11 8 9 ar
12 8 13 1
13 9 17 1
14 10 19 1
15 11 12 ar
16 11 20 1
17 12 21 1
18 13 18 1
19 13 19 2
20 14 17 2
21 14 18 1
22 14 22 1
23 15 20 1
24 16 21 1
25 1 23 1
26 2 24 1
27 3 25 1
28 4 26 1
29 5 27 1
30 6 28 1
31 7 29 1
32 15 30 1
33 15 31 1
34 15 32 1
35 16 33 1
36 16 34 1
37 16 35 1
38 17 36 1
39 18 37 1

@<COSMOlogic>TOTAL_CHARGE
1.0
