# Created by COSMOvis on Mon Aug 09 22:24:21 CEST 2021
#
#

#
#

@<TRIPOS>MOLECULE
SAMPL8-18_micro002_c0
36 38
SMALL
USER_CHARGES

@<TRIPOS>ATOM
1 C 5.383400 2.094500 3.816300 C 0 XO 0.000000
2 C 4.688400 2.139900 5.043400 C 1 XO 0.000000
3 C 5.864600 0.887600 3.330400 C 2 XO 0.000000
4 C 4.482300 0.982100 5.776300 C 3 XO 0.000000
5 C 7.873200 -2.670800 0.536100 C 4 XO 0.000000
6 C 8.458800 -3.724200 -0.173500 C 5 XO 0.000000
7 C 7.403700 -4.176900 2.383500 C 6 XO 0.000000
8 C 5.665400 -0.308600 4.056500 C 7 XO 0.000000
9 C 4.965800 -0.258500 5.300000 C 8 XO 0.000000
10 C 7.341500 -2.888600 1.814100 C 9 XO 0.000000
11 C 8.526900 -5.007200 0.375300 C 10 XO 0.000000
12 C 7.988100 -5.226800 1.672500 C 11 XO 0.000000
13 C 6.122600 -1.624800 3.640300 C 12 XO 0.000000
14 C 5.232100 -2.490100 5.545900 C 13 XO 0.000000
15 C 9.623200 -5.907800 -1.559100 C 14 XO 0.000000
16 C 7.557000 -6.777100 3.456100 C 15 XO 0.000000
17 N 4.746600 -1.394000 6.061800 N 16 XO 0.000000
18 N 5.897100 -2.704900 4.408700 N 17 XO 0.000000
19 N 6.781200 -1.763100 2.462800 N 18 XO 0.000000
20 O 9.077300 -6.099100 -0.239900 O 19 XO 0.000000
21 O 8.090700 -6.506100 2.146000 O 20 XO 0.000000
22 Cl 4.967600 -3.974900 6.514700 Cl 21 XO 0.000000
23 H 5.544500 3.010700 3.247200 H 22 XO 0.000000
24 H 4.313100 3.093900 5.417200 H 23 XO 0.000000
25 H 6.400000 0.887900 2.379200 H 24 XO 0.000000
26 H 3.949700 0.998900 6.728200 H 25 XO 0.000000
27 H 7.832300 -1.677200 0.085800 H 26 XO 0.000000
28 H 8.863600 -3.529200 -1.165500 H 27 XO 0.000000
29 H 6.985000 -4.334200 3.372300 H 28 XO 0.000000
30 H 10.001900 -6.888500 -1.864100 H 29 XO 0.000000
31 H 10.449600 -5.180500 -1.544700 H 30 XO 0.000000
32 H 8.846700 -5.575000 -2.265100 H 31 XO 0.000000
33 H 7.739200 -7.842300 3.630700 H 32 XO 0.000000
34 H 6.475300 -6.576000 3.492000 H 33 XO 0.000000
35 H 8.073600 -6.182400 4.224800 H 34 XO 0.000000
36 H 6.886000 -0.904200 1.926300 H 35 XO 0.000000

@<TRIPOS>BOND
1 1 2 ar
2 1 3 ar
3 2 4 ar
4 3 8 ar
5 4 9 ar
6 5 6 ar
7 5 10 ar
8 6 11 ar
9 7 10 ar
10 7 12 ar
11 8 9 ar
12 8 13 ar
13 9 17 ar
14 10 19 1
15 11 12 ar
16 11 20 1
17 12 21 1
18 13 18 ar
19 13 19 1
20 14 17 ar
21 14 18 ar
22 14 22 1
23 15 20 1
24 16 21 1
25 1 23 1
26 2 24 1
27 3 25 1
28 4 26 1
29 5 27 1
30 6 28 1
31 7 29 1
32 15 30 1
33 15 31 1
34 15 32 1
35 16 33 1
36 16 34 1
37 16 35 1
38 19 36 1

@<COSMOlogic>TOTAL_CHARGE
0.0
