# Created by COSMOvis on Mon Aug 09 22:24:22 CEST 2021
#
#

#
#

@<TRIPOS>MOLECULE
SAMPL8-20_micro002_c0
27 29
SMALL
USER_CHARGES

@<TRIPOS>ATOM
1 C -4.536500 0.023200 -0.350200 C 0 XO 0.000000
2 C -3.798100 1.164600 -0.019600 C 1 XO 0.000000
3 C -3.889400 -1.208400 -0.509300 C 2 XO 0.000000
4 C -2.415100 1.078400 0.151000 C 3 XO 0.000000
5 C -2.509400 -1.307700 -0.329300 C 4 XO 0.000000
6 C 1.834300 -1.083900 1.020800 C 5 XO 0.000000
7 C 2.507900 -0.112000 0.294900 C 6 XO 0.000000
8 C -1.762700 -0.161700 0.002900 C 7 XO 0.000000
9 C 0.434900 -1.126600 0.943200 C 8 XO 0.000000
10 C -0.296300 -0.223200 0.147000 C 9 XO 0.000000
11 C 1.756900 0.805200 -0.487700 C 10 XO 0.000000
12 C 3.879100 0.300900 0.079900 C 11 XO 0.000000
13 N 0.406900 0.724600 -0.547600 N 12 XO 0.000000
14 N 3.928400 1.347500 -0.745600 N 13 XO 0.000000
15 N 2.609400 1.648100 -1.075300 N 14 XO 1.000000
16 N 4.991500 -0.217800 0.684300 N 15 XO 0.000000
17 Cl -0.405500 -2.304400 1.934700 Cl 16 XO 0.000000
18 H -5.616900 0.092700 -0.485400 H 17 XO 0.000000
19 H -4.298600 2.124800 0.112200 H 18 XO 0.000000
20 H -4.461200 -2.096900 -0.780300 H 19 XO 0.000000
21 H -1.847500 1.968000 0.430800 H 20 XO 0.000000
22 H -2.010100 -2.265500 -0.473000 H 21 XO 0.000000
23 H 2.361600 -1.795800 1.655800 H 22 XO 0.000000
24 H 2.416500 2.413600 -1.715700 H 23 XO 0.000000
25 H 4.953700 -1.201200 0.941100 H 24 XO 0.000000
26 H 5.883400 0.052800 0.273800 H 25 XO 0.000000
27 H -0.117300 1.360600 -1.153600 H 26 XO 0.000000

@<TRIPOS>BOND
1 1 2 ar
2 1 3 ar
3 2 4 ar
4 3 5 ar
5 4 8 ar
6 5 8 ar
7 6 7 2
8 6 9 1
9 7 11 1
10 7 12 1
11 8 10 1
12 9 10 2
13 9 17 1
14 10 13 1
15 11 13 1
16 11 15 2
17 12 14 2
18 12 16 1
19 14 15 1
20 1 18 1
21 2 19 1
22 3 20 1
23 4 21 1
24 5 22 1
25 6 23 1
26 13 27 1
27 15 24 1
28 16 25 1
29 16 26 1

@<COSMOlogic>TOTAL_CHARGE
1.0
