# Created by COSMOvis on Mon Aug 09 22:24:23 CEST 2021
#
#

#
#

@<TRIPOS>MOLECULE
SAMPL8-5_micro005_c0
30 31
SMALL
USER_CHARGES

@<TRIPOS>ATOM
1 C -2.199200 3.001800 -0.115500 C 0 XO 0.000000
2 C -0.809600 3.055400 0.049600 C 1 XO 0.000000
3 C -0.088000 1.864800 0.161900 C 2 XO 0.000000
4 C -0.734400 0.627000 0.087000 C 3 XO 0.000000
5 C -2.135100 0.539700 -0.138200 C 4 XO 0.000000
6 C -2.840200 1.767600 -0.198500 C 5 XO 0.000000
7 C -2.907900 -0.694600 -0.269400 C 6 XO 0.000000
8 C -2.539500 -1.882600 -0.830900 C 7 XO 0.000000
9 O -1.327900 -2.233700 -1.295500 O 8 XO 0.000000
10 O -3.473600 -2.858400 -1.004000 O 9 XO 0.000000
11 N -0.007400 -0.614600 0.302500 N 10 XO 0.000000
12 C 1.411200 -0.598500 0.399200 C 11 XO 0.000000
13 C 2.233500 -0.383300 -0.725900 C 12 XO 0.000000
14 C 3.624500 -0.398700 -0.641600 C 13 XO 0.000000
15 C 4.235800 -0.663600 0.586000 C 14 XO 0.000000
16 C 3.461200 -0.911100 1.720800 C 15 XO 0.000000
17 C 2.072400 -0.866300 1.615700 C 16 XO 0.000000
18 Cl 1.100900 -1.173400 3.062400 Cl 17 XO 0.000000
19 Cl 1.487100 -0.112800 -2.301100 Cl 18 XO 0.000000
20 H -2.782500 3.921700 -0.185000 H 19 XO 0.000000
21 H -0.290700 4.013000 0.112400 H 20 XO 0.000000
22 H 0.987900 1.898800 0.339800 H 21 XO 0.000000
23 H -3.922400 1.730100 -0.341700 H 22 XO 0.000000
24 H -3.968700 -0.619100 -0.024900 H 23 XO 0.000000
25 H -0.639100 -1.631800 -0.830200 H 24 XO 0.000000
26 H -3.017900 -3.658700 -1.333500 H 25 XO 0.000000
27 H -0.402900 -1.084800 1.128000 H 26 XO 0.000000
28 H 4.221500 -0.221300 -1.535500 H 27 XO 0.000000
29 H 5.323400 -0.685800 0.656700 H 28 XO 0.000000
30 H 3.927500 -1.127100 2.681300 H 29 XO 0.000000

@<TRIPOS>BOND
1 1 2 ar
2 1 6 ar
3 2 3 ar
4 3 4 ar
5 4 5 ar
6 4 11 1
7 5 6 ar
8 5 7 1
9 7 8 2
10 8 9 1
11 8 10 1
12 11 12 1
13 12 13 ar
14 12 17 ar
15 13 14 ar
16 13 19 1
17 14 15 ar
18 15 16 ar
19 16 17 ar
20 17 18 1
21 1 20 1
22 2 21 1
23 3 22 1
24 6 23 1
25 7 24 1
26 9 25 1
27 10 26 1
28 11 27 1
29 14 28 1
30 15 29 1
31 16 30 1

@<COSMOlogic>TOTAL_CHARGE
0.0
