# Created by COSMOvis on Mon Aug 09 22:24:21 CEST 2021
#
#

#
#

@<TRIPOS>MOLECULE
SAMPL8-14_micro024_c0
43 44
SMALL
USER_CHARGES

@<TRIPOS>ATOM
1 C -1.654300 -3.164900 2.383000 C 0 XO 0.000000
2 C -2.097500 -1.679600 0.545400 C 1 XO 0.000000
3 C -2.185500 -6.597800 0.724000 C 2 XO 0.000000
4 C -1.889400 -2.984500 1.014700 C 3 XO 0.000000
5 C -1.620700 -2.080100 3.264200 C 4 XO 0.000000
6 C -2.078100 -0.546400 1.378400 C 5 XO 0.000000
7 C -2.730900 -5.344200 0.483800 C 6 XO 0.000000
8 C -1.834500 -0.779800 2.752900 C 7 XO 0.000000
9 C -4.144400 -5.265300 0.655600 C 8 XO 0.000000
10 C -4.221700 -7.499600 1.202200 C 9 XO 0.000000
11 C -1.366200 -2.279500 4.739500 C 10 XO 0.000000
12 C -3.561900 1.507100 1.467100 C 11 XO 0.000000
13 C -2.549700 0.850000 -0.711400 C 12 XO 0.000000
14 C -1.067600 1.757100 1.072900 C 13 XO 0.000000
15 C -1.893700 -4.165300 0.049800 C 14 XO 0.000000
16 C -2.311000 0.870300 0.811900 C 15 XO 0.000000
17 N -2.888500 -7.692900 1.083100 N 16 XO 0.000000
18 N -4.880100 -6.336300 1.014600 N 17 XO 0.000000
19 N -4.822500 -4.102400 0.418300 N 18 XO 0.000000
20 N -4.986200 -8.599600 1.504200 N 19 XO 0.000000
21 O -1.810400 0.299600 3.612800 O 20 XO 0.000000
22 H -1.494000 -4.170600 2.780500 H 21 XO 0.000000
23 H -2.276000 -1.545300 -0.522300 H 22 XO 0.000000
24 H -1.104200 -6.740300 0.619200 H 23 XO 0.000000
25 H -1.219700 -3.343100 4.964900 H 24 XO 0.000000
26 H -0.463100 -1.745300 5.080600 H 25 XO 0.000000
27 H -2.210600 -1.927700 5.356800 H 26 XO 0.000000
28 H -3.451600 1.595200 2.554400 H 27 XO 0.000000
29 H -3.725500 2.514500 1.052800 H 28 XO 0.000000
30 H -4.458100 0.904200 1.255400 H 29 XO 0.000000
31 H -2.708300 1.881200 -1.060400 H 30 XO 0.000000
32 H -1.687700 0.442200 -1.260500 H 31 XO 0.000000
33 H -3.442400 0.266600 -0.982500 H 32 XO 0.000000
34 H -1.236400 2.763800 0.659300 H 33 XO 0.000000
35 H -0.855500 1.855200 2.144200 H 34 XO 0.000000
36 H -0.179700 1.332800 0.579900 H 35 XO 0.000000
37 H -2.235000 -3.806400 -0.936500 H 36 XO 0.000000
38 H -0.860600 -4.521300 -0.099600 H 37 XO 0.000000
39 H -4.305300 -3.226900 0.465100 H 38 XO 0.000000
40 H -5.788000 -4.060700 0.737000 H 39 XO 0.000000
41 H -5.922100 -8.425600 1.859400 H 40 XO 0.000000
42 H -4.499700 -9.393900 1.910200 H 41 XO 0.000000
43 H -1.634600 -0.019400 4.518700 H 42 XO 0.000000

@<TRIPOS>BOND
1 1 4 ar
2 1 5 ar
3 2 4 ar
4 2 6 ar
5 3 7 ar
6 3 17 ar
7 4 15 1
8 5 8 ar
9 5 11 1
10 6 8 ar
11 6 16 1
12 7 9 ar
13 7 15 1
14 8 21 1
15 9 18 ar
16 9 19 1
17 10 17 ar
18 10 18 ar
19 10 20 1
20 12 16 1
21 13 16 1
22 14 16 1
23 1 22 1
24 2 23 1
25 3 24 1
26 11 25 1
27 11 26 1
28 11 27 1
29 12 28 1
30 12 29 1
31 12 30 1
32 13 31 1
33 13 32 1
34 13 33 1
35 14 34 1
36 14 35 1
37 14 36 1
38 15 37 1
39 15 38 1
40 19 39 1
41 19 40 1
42 20 41 1
43 20 42 1
44 21 43 1

@<COSMOlogic>TOTAL_CHARGE
0.0
