# Created by COSMOvis on Mon Aug 09 22:24:22 CEST 2021
#
#

#
#

@<TRIPOS>MOLECULE
SAMPL8-21_micro025_c0
40 41
SMALL
USER_CHARGES

@<TRIPOS>ATOM
1 C 1.987200 -2.742800 1.855100 C 0 XO 0.000000
2 O 0.790800 -2.465700 1.103200 O 1 XO 0.000000
3 C 0.500500 -1.151100 0.839300 C 2 XO 0.000000
4 C 1.277100 -0.055800 1.257000 C 3 XO 0.000000
5 C 0.901800 1.256300 0.930700 C 4 XO 0.000000
6 C -0.259100 1.479500 0.173600 C 5 XO 0.000000
7 C -1.035200 0.391700 -0.238300 C 6 XO 0.000000
8 C -0.665800 -0.927700 0.089300 C 7 XO 0.000000
9 O -1.425300 -1.995600 -0.324100 O 8 XO 0.000000
10 O -2.192700 0.462800 -0.978600 O 9 XO 0.000000
11 C -2.660800 1.766400 -1.374000 C 10 XO 0.000000
12 C 1.742000 2.430200 1.426000 C 11 XO 0.000000
13 C 2.076500 3.468000 0.378700 C 12 XO 0.000000
14 C 2.845400 3.148100 -0.740500 C 13 XO 0.000000
15 N 3.152600 4.130500 -1.646200 N 14 XO 0.000000
16 C 2.750300 5.477100 -1.509900 C 15 XO 0.000000
17 N 3.071000 6.394100 -2.381300 N 16 XO 0.000000
18 N 1.992500 5.787500 -0.409100 N 17 XO 0.000000
19 C 1.690700 4.834000 0.457800 C 18 XO 0.000000
20 O 0.942000 5.163900 1.542000 O 19 XO 0.000000
21 C 0.525300 6.544100 1.676200 C 20 XO 0.000000
22 N 3.360300 1.908600 -0.966000 N 21 XO 0.000000
23 H 2.882000 -2.379500 1.326700 H 22 XO 0.000000
24 H 2.030600 -3.833300 1.943000 H 23 XO 0.000000
25 H 1.939700 -2.293300 2.858700 H 24 XO 0.000000
26 H 2.177600 -0.221800 1.848400 H 25 XO 0.000000
27 H -0.546000 2.496600 -0.091700 H 26 XO 0.000000
28 H -2.179500 -1.629000 -0.831500 H 27 XO 0.000000
29 H -3.578400 1.589600 -1.944100 H 28 XO 0.000000
30 H -1.919600 2.272300 -2.010700 H 29 XO 0.000000
31 H -2.884200 2.386500 -0.492900 H 30 XO 0.000000
32 H 2.670900 2.027800 1.865600 H 31 XO 0.000000
33 H 1.213000 2.933400 2.247500 H 32 XO 0.000000
34 H 3.710700 3.883700 -2.462500 H 33 XO 0.000000
35 H 3.637500 5.989700 -3.136200 H 34 XO 0.000000
36 H 1.396100 7.208500 1.748500 H 35 XO 0.000000
37 H -0.055300 6.571600 2.604000 H 36 XO 0.000000
38 H -0.097200 6.848100 0.824800 H 37 XO 0.000000
39 H 3.720100 1.686300 -1.891000 H 38 XO 0.000000
40 H 2.911100 1.127800 -0.489900 H 39 XO 0.000000

@<TRIPOS>BOND
1 1 2 1
2 2 3 1
3 3 4 ar
4 3 8 ar
5 4 5 ar
6 5 6 ar
7 5 12 1
8 6 7 ar
9 7 8 ar
10 7 10 1
11 8 9 1
12 10 11 1
13 12 13 1
14 13 14 2
15 13 19 1
16 14 15 1
17 14 22 1
18 15 16 1
19 16 17 2
20 16 18 1
21 18 19 2
22 19 20 1
23 20 21 1
24 1 23 1
25 1 24 1
26 1 25 1
27 4 26 1
28 6 27 1
29 9 28 1
30 11 29 1
31 11 30 1
32 11 31 1
33 12 32 1
34 12 33 1
35 15 34 1
36 17 35 1
37 21 36 1
38 21 37 1
39 21 38 1
40 22 39 1
41 22 40 1

@<COSMOlogic>TOTAL_CHARGE
0.0
