# Created by COSMOvis on Mon Aug 09 22:24:22 CEST 2021
#
#

#
#

@<TRIPOS>MOLECULE
SAMPL8-21_extra006_c0
40 41
SMALL
USER_CHARGES

@<TRIPOS>ATOM
1 C 1.647500 1.786900 -0.118000 C 0 XO 0.000000
2 C 1.314500 -0.495800 0.608700 C 1 XO 0.000000
3 C 0.809200 0.806500 0.445500 C 2 XO 0.000000
4 C -1.695000 0.313100 0.224800 C 3 XO 0.000000
5 C 2.961900 1.476800 -0.495800 C 4 XO 0.000000
6 C 2.626500 -0.804100 0.235400 C 5 XO 0.000000
7 C 3.528600 0.162000 -0.345600 C 6 XO 0.000000
8 C -1.795200 0.202900 -1.169400 C 7 XO 0.000000
9 C -2.691200 -0.369500 0.952200 C 8 XO 0.000000
10 C -3.752200 -1.163300 -0.912500 C 9 XO 0.000000
11 C 3.340300 3.726700 -1.266800 C 10 XO 0.000000
12 C 2.360500 -3.091600 0.938300 C 11 XO 0.000000
13 C -3.637300 -0.984400 3.072300 C 12 XO 0.000000
14 C -0.611800 1.154600 0.869000 C 13 XO 0.000000
15 N -2.823900 -0.540700 -1.706700 N 14 XO 0.000000
16 N -3.691200 -1.089700 0.413700 N 15 XO 0.000000
17 N -0.959200 0.816700 -2.029000 N 16 XO 1.000000
18 N -4.736100 -1.851800 -1.508600 N 17 XO 0.000000
19 O 4.739100 -0.129800 -0.697600 O 18 XO -1.000000
20 O 3.835400 2.399800 -1.055400 O 19 XO 0.000000
21 O 3.186700 -2.065500 0.376800 O 20 XO 0.000000
22 O -2.630400 -0.284700 2.292100 O 21 XO 0.000000
23 H 1.267800 2.804500 -0.232900 H 22 XO 0.000000
24 H 0.667700 -1.265100 1.034000 H 23 XO 0.000000
25 H 3.050100 4.209400 -0.318400 H 24 XO 0.000000
26 H 2.476500 3.733500 -1.952600 H 25 XO 0.000000
27 H 4.166800 4.286900 -1.719500 H 26 XO 0.000000
28 H 2.981100 -3.994900 0.965700 H 27 XO 0.000000
29 H 1.469100 -3.280600 0.317000 H 28 XO 0.000000
30 H 2.038200 -2.839000 1.962200 H 29 XO 0.000000
31 H -3.375900 -0.770900 4.112900 H 30 XO 0.000000
32 H -3.594700 -2.062900 2.877300 H 31 XO 0.000000
33 H -4.638500 -0.601600 2.839500 H 32 XO 0.000000
34 H -0.724200 1.065400 1.959000 H 33 XO 0.000000
35 H -0.797900 2.216700 0.630900 H 34 XO 0.000000
36 H -0.983700 0.588200 -3.019600 H 35 XO 0.000000
37 H -0.058100 1.128100 -1.653800 H 36 XO 0.000000
38 H -4.798000 -1.953800 -2.516100 H 37 XO 0.000000
39 H -5.411500 -2.339600 -0.929500 H 38 XO 0.000000
40 H -2.892200 -0.628400 -2.721200 H 39 XO 0.000000

@<TRIPOS>BOND
1 1 3 ar
2 1 5 ar
3 2 3 ar
4 2 6 ar
5 3 14 1
6 4 8 1
7 4 9 2
8 4 14 1
9 5 7 ar
10 5 20 1
11 6 7 ar
12 6 21 1
13 7 19 1
14 8 15 1
15 8 17 2
16 9 16 1
17 9 22 1
18 10 15 1
19 10 16 2
20 10 18 1
21 11 20 1
22 12 21 1
23 13 22 1
24 1 23 1
25 2 24 1
26 11 25 1
27 11 26 1
28 11 27 1
29 12 28 1
30 12 29 1
31 12 30 1
32 13 31 1
33 13 32 1
34 13 33 1
35 14 34 1
36 14 35 1
37 15 40 1
38 17 36 1
39 17 37 1
40 18 38 1
41 18 39 1

@<COSMOlogic>TOTAL_CHARGE
0.0
