# Created by COSMOvis on Mon Aug 09 22:24:23 CEST 2021
#
#

#
#

@<TRIPOS>MOLECULE
SAMPL8-4_micro003_c0
26 27
SMALL
USER_CHARGES

@<TRIPOS>ATOM
1 C 5.688000 -3.465700 3.859300 C 0 XO 0.000000
2 C 4.499900 -2.829200 3.220800 C 1 XO 0.000000
3 C 3.515100 -2.058800 3.765000 C 2 XO 0.000000
4 N 2.566300 -1.639400 2.828000 N 3 XO 0.000000
5 C 2.719200 -2.059400 1.541400 C 4 XO 0.000000
6 N 1.963600 -1.905600 0.485800 N 5 XO 0.000000
7 C 0.955300 -0.970800 0.393800 C 6 XO 0.000000
8 C 0.967000 0.305500 1.022600 C 7 XO 0.000000
9 C -0.060100 1.211000 0.813500 C 8 XO 0.000000
10 C -1.159400 0.896200 -0.020400 C 9 XO 0.000000
11 C -1.160600 -0.370600 -0.652000 C 10 XO 0.000000
12 C -0.135200 -1.278700 -0.463600 C 11 XO 0.000000
13 Cl -2.505500 -0.807500 -1.709900 Cl 12 XO 0.000000
14 C -2.202000 1.837300 -0.212600 C 13 XO 0.000000
15 N -3.047400 2.633900 -0.353200 N 14 XO 0.000000
16 S 4.209400 -3.038900 1.473400 S 15 XO 0.000000
17 C 3.277300 -1.601600 5.197800 C 16 XO 0.000000
18 O 2.221700 -0.911600 5.357800 O 17 XO -1.000000
19 O 4.118000 -1.936200 6.078700 O 18 XO 0.000000
20 H 5.676400 -3.228900 4.929700 H 19 XO 0.000000
21 H 6.626800 -3.094500 3.419600 H 20 XO 0.000000
22 H 5.673600 -4.559200 3.730900 H 21 XO 0.000000
23 H 1.760100 -1.115500 3.176900 H 22 XO 0.000000
24 H 1.811100 0.604000 1.644000 H 23 XO 0.000000
25 H -0.028300 2.189800 1.292900 H 24 XO 0.000000
26 H -0.153100 -2.244900 -0.966500 H 25 XO 0.000000

@<TRIPOS>BOND
1 1 2 1
2 2 3 2
3 2 16 1
4 3 4 1
5 3 17 1
6 4 5 1
7 5 6 2
8 5 16 1
9 6 7 1
10 7 8 ar
11 7 12 ar
12 8 9 ar
13 9 10 ar
14 10 11 ar
15 10 14 1
16 11 12 ar
17 11 13 1
18 14 15 3
19 17 18 1
20 17 19 2
21 1 20 1
22 1 21 1
23 1 22 1
24 4 23 1
25 8 24 1
26 9 25 1
27 12 26 1

@<COSMOlogic>TOTAL_CHARGE
-1.0
