# Created by COSMOvis on Mon Aug 09 22:24:23 CEST 2021
#
#

#
#

@<TRIPOS>MOLECULE
SAMPL8-22_micro003_c0
26 27
SMALL
USER_CHARGES

@<TRIPOS>ATOM
1 C 3.866200 -0.494400 0.088500 C 0 XO 0.000000
2 O 2.639600 -1.249600 0.151500 O 1 XO 0.000000
3 C 1.472500 -0.543400 0.157400 C 2 XO 0.000000
4 C 1.374200 0.840500 0.105200 C 3 XO 0.000000
5 C 0.118100 1.482600 0.114400 C 4 XO 0.000000
6 C -1.038700 0.688900 0.178000 C 5 XO 0.000000
7 C -0.965600 -0.712700 0.233400 C 6 XO 0.000000
8 C 0.279500 -1.335100 0.224800 C 7 XO 0.000000
9 O 0.469800 -2.678300 0.276300 O 8 XO 0.000000
10 C -0.701500 -3.519700 0.353300 C 9 XO 0.000000
11 N -2.282600 1.330200 0.184700 N 10 XO 0.000000
12 C -2.324800 2.680000 0.129700 C 11 XO 0.000000
13 N -1.320900 3.483200 0.071700 N 12 XO 0.000000
14 C -0.012000 2.949200 0.061300 C 13 XO 0.000000
15 N 1.029900 3.720500 0.007000 N 14 XO 0.000000
16 Cl -3.966300 3.346600 0.142900 Cl 15 XO 0.000000
17 H 3.915800 0.099200 -0.836900 H 16 XO 0.000000
18 H 4.667800 -1.239500 0.094300 H 17 XO 0.000000
19 H 3.966300 0.167100 0.962200 H 18 XO 0.000000
20 H 2.262900 1.466900 0.055400 H 19 XO 0.000000
21 H -1.883600 -1.296300 0.283000 H 20 XO 0.000000
22 H -0.320100 -4.544600 0.388400 H 21 XO 0.000000
23 H -1.337000 -3.388400 -0.534800 H 22 XO 0.000000
24 H -1.278300 -3.304800 1.265000 H 23 XO 0.000000
25 H -3.141600 0.784600 0.228800 H 24 XO 0.000000
26 H 0.714100 4.699600 -0.023200 H 25 XO 0.000000

@<TRIPOS>BOND
1 1 2 1
2 2 3 1
3 3 4 ar
4 3 8 ar
5 4 5 ar
6 5 6 ar
7 5 14 1
8 6 7 ar
9 6 11 1
10 7 8 ar
11 8 9 1
12 9 10 1
13 11 12 1
14 12 13 2
15 12 16 1
16 13 14 1
17 14 15 2
18 1 17 1
19 1 18 1
20 1 19 1
21 4 20 1
22 7 21 1
23 10 22 1
24 10 23 1
25 10 24 1
26 11 25 1
27 15 26 1

@<COSMOlogic>TOTAL_CHARGE
0.0
