# Created by COSMOvis on Mon Aug 09 22:24:21 CEST 2021
#
#

#
#

@<TRIPOS>MOLECULE
SAMPL8-15_micro004_c0
32 34
SMALL
USER_CHARGES

@<TRIPOS>ATOM
1 C 3.629500 -0.012200 -1.782800 C 0 XO 0.000000
2 C -4.383300 0.526800 1.098300 C 1 XO 0.000000
3 C 4.710500 -0.029400 -0.879400 C 2 XO 0.000000
4 C -3.544000 -0.447500 1.650100 C 3 XO 0.000000
5 C 2.327100 0.087800 -1.316100 C 4 XO 0.000000
6 C -3.879800 1.434800 0.162500 C 5 XO 0.000000
7 C 4.492500 0.050100 0.488800 C 6 XO 0.000000
8 C -2.203900 -0.505600 1.265600 C 7 XO 0.000000
9 C 2.071700 0.179300 0.068500 C 8 XO 0.000000
10 C -2.535100 1.406300 -0.239100 C 9 XO 0.000000
11 C 3.175000 0.153500 0.958900 C 10 XO 0.000000
12 C -1.708600 0.419700 0.338200 C 11 XO 0.000000
13 C 0.751800 0.294900 0.666000 C 12 XO 0.000000
14 C 1.654100 0.334400 2.765500 C 13 XO 0.000000
15 C -1.997900 2.394800 -1.240900 C 14 XO 0.000000
16 N 2.917100 0.228700 2.323000 N 15 XO 1.000000
17 N 0.592200 0.371400 2.010800 N 16 XO 0.000000
18 N -0.347400 0.341400 -0.099300 N 17 XO 0.000000
19 Cl 1.463800 0.438100 4.492900 Cl 18 XO 0.000000
20 H 3.816300 -0.082800 -2.854200 H 19 XO 0.000000
21 H -5.432800 0.576700 1.393000 H 20 XO 0.000000
22 H 5.730500 -0.108900 -1.256200 H 21 XO 0.000000
23 H -3.931000 -1.168000 2.371900 H 22 XO 0.000000
24 H 1.508500 0.084200 -2.036200 H 23 XO 0.000000
25 H -4.538200 2.193700 -0.265500 H 24 XO 0.000000
26 H 5.322100 0.033400 1.196400 H 25 XO 0.000000
27 H -1.543800 -1.270800 1.672500 H 26 XO 0.000000
28 H -1.112500 2.922100 -0.854900 H 27 XO 0.000000
29 H -2.759900 3.143100 -1.490300 H 28 XO 0.000000
30 H -1.699500 1.902500 -2.181400 H 29 XO 0.000000
31 H -0.202100 0.379900 -1.108100 H 30 XO 0.000000
32 H 3.694700 0.202100 2.985300 H 31 XO 0.000000

@<TRIPOS>BOND
1 1 3 ar
2 1 5 ar
3 2 4 ar
4 2 6 ar
5 3 7 ar
6 4 8 ar
7 5 9 ar
8 6 10 ar
9 7 11 ar
10 8 12 ar
11 9 11 ar
12 9 13 1
13 10 12 ar
14 10 15 1
15 11 16 1
16 12 18 1
17 13 17 2
18 13 18 1
19 14 16 2
20 14 17 1
21 14 19 1
22 1 20 1
23 2 21 1
24 3 22 1
25 4 23 1
26 5 24 1
27 6 25 1
28 7 26 1
29 8 27 1
30 15 28 1
31 15 29 1
32 15 30 1
33 16 32 1
34 18 31 1

@<COSMOlogic>TOTAL_CHARGE
1.0
