# Created by COSMOvis on Mon Aug 09 22:24:22 CEST 2021
#
#

#
#

@<TRIPOS>MOLECULE
SAMPL8-20_micro015_c0
27 29
SMALL
USER_CHARGES

@<TRIPOS>ATOM
1 C -4.663900 0.112600 0.129200 C 0 XO 0.000000
2 C -4.011400 -0.952800 0.762100 C 1 XO 0.000000
3 C -3.921700 1.075500 -0.563000 C 2 XO 0.000000
4 C -2.621800 -1.066200 0.697700 C 3 XO 0.000000
5 C -2.529700 0.976300 -0.623500 C 4 XO 0.000000
6 C 1.782100 -1.225200 -0.473100 C 5 XO 0.000000
7 C 2.410300 -0.048600 -0.063600 C 6 XO 0.000000
8 C -1.871700 -0.099300 0.003300 C 7 XO 0.000000
9 C 0.386600 -1.262300 -0.456200 C 8 XO 0.000000
10 C -0.395800 -0.160500 -0.033200 C 9 XO 0.000000
11 C 1.617600 1.072300 0.349000 C 10 XO 0.000000
12 C 3.703900 0.491600 0.104800 C 11 XO 0.000000
13 N 0.258800 0.966500 0.350700 N 12 XO 0.000000
14 N 3.663000 1.744900 0.550400 N 13 XO 0.000000
15 N 2.350600 2.133200 0.714700 N 14 XO 0.000000
16 N 4.999300 -0.125700 -0.139700 N 15 XO 1.000000
17 Cl -0.407700 -2.715100 -1.044400 Cl 16 XO 0.000000
18 H -5.751100 0.192300 0.177600 H 17 XO 0.000000
19 H -4.586900 -1.697900 1.313100 H 18 XO 0.000000
20 H -4.425300 1.904500 -1.062100 H 19 XO 0.000000
21 H -2.119000 -1.889400 1.205100 H 20 XO 0.000000
22 H -1.955500 1.719900 -1.179200 H 21 XO 0.000000
23 H 2.343200 -2.095800 -0.813700 H 22 XO 0.000000
24 H 5.743900 0.553300 0.084500 H 23 XO 0.000000
25 H 5.133300 -0.404500 -1.123600 H 24 XO 0.000000
26 H 5.165300 -0.958400 0.445800 H 25 XO 0.000000
27 H -0.296200 1.758700 0.687200 H 26 XO 0.000000

@<TRIPOS>BOND
1 1 2 ar
2 1 3 ar
3 2 4 ar
4 3 5 ar
5 4 8 ar
6 5 8 ar
7 6 7 2
8 6 9 1
9 7 11 1
10 7 12 1
11 8 10 1
12 9 10 2
13 9 17 1
14 10 13 1
15 11 13 1
16 11 15 2
17 12 14 2
18 12 16 1
19 14 15 1
20 1 18 1
21 2 19 1
22 3 20 1
23 4 21 1
24 5 22 1
25 6 23 1
26 13 27 1
27 16 24 1
28 16 25 1
29 16 26 1

@<COSMOlogic>TOTAL_CHARGE
1.0
