# Created by COSMOvis on Mon Aug 09 22:24:23 CEST 2021
#
#

#
#

@<TRIPOS>MOLECULE
SAMPL8-3_micro013_c0
30 31
SMALL
USER_CHARGES

@<TRIPOS>ATOM
1 C 3.765400 1.192300 -2.010400 C 0 XO 0.000000
2 C 3.215800 1.395600 -0.698400 C 1 XO 0.000000
3 C -2.408600 -0.987600 0.296200 C 2 XO 0.000000
4 C -0.286600 0.765600 0.632700 C 3 XO 0.000000
5 C 3.806300 -0.158700 -2.204000 C 4 XO 0.000000
6 C -1.148500 -1.527500 0.569800 C 5 XO 0.000000
7 C -0.042700 -0.627800 0.750500 C 6 XO 0.000000
8 C -2.657600 0.384400 0.188300 C 7 XO 0.000000
9 C -1.561200 1.241400 0.359400 C 8 XO 0.000000
10 C 2.960200 0.155600 -0.176500 C 9 XO 0.000000
11 C -1.013200 -3.043600 0.648400 C 10 XO 0.000000
12 C 2.417500 -0.322900 1.136700 C 11 XO 0.000000
13 N -4.921100 1.918200 0.948200 N 12 XO 0.000000
14 N 1.196000 -1.112100 1.056500 N 13 XO 0.000000
15 O 0.156500 -3.527400 0.863400 O 14 XO -1.000000
16 O -5.192700 -0.314000 -0.190300 O 15 XO -1.000000
17 O -4.232400 1.590600 -1.582900 O 16 XO 0.000000
18 O 3.321900 -0.813700 -1.093500 O 17 XO 0.000000
19 O -2.058300 -3.740300 0.493700 O 18 XO 0.000000
20 S -4.365200 0.958300 -0.200000 S 19 XO 0.000000
21 Cl -1.741400 3.008800 0.234800 Cl 20 XO 0.000000
22 H 4.084300 1.953900 -2.716200 H 21 XO 0.000000
23 H 3.034600 2.346400 -0.205100 H 22 XO 0.000000
24 H -3.237700 -1.682700 0.161900 H 23 XO 0.000000
25 H 0.526700 1.477600 0.754700 H 24 XO 0.000000
26 H 4.128300 -0.795100 -3.021100 H 25 XO 0.000000
27 H 2.271900 0.559000 1.780800 H 26 XO 0.000000
28 H 3.165800 -0.954000 1.639000 H 27 XO 0.000000
29 H -4.409800 2.807400 0.855300 H 28 XO 0.000000
30 H 1.226100 -2.147800 1.029200 H 29 XO 0.000000

@<TRIPOS>BOND
1 1 2 ar
2 1 5 ar
3 2 10 ar
4 3 6 ar
5 3 8 ar
6 4 7 ar
7 4 9 ar
8 5 18 ar
9 6 7 ar
10 6 11 1
11 7 14 1
12 8 9 ar
13 8 20 1
14 9 21 1
15 10 12 1
16 10 18 ar
17 11 15 1
18 11 19 2
19 12 14 1
20 13 20 2
21 16 20 1
22 17 20 2
23 1 22 1
24 2 23 1
25 3 24 1
26 4 25 1
27 5 26 1
28 12 27 1
29 12 28 1
30 13 29 1
31 14 30 1

@<COSMOlogic>TOTAL_CHARGE
-2.0
