# Created by COSMOvis on Mon Aug 09 22:24:23 CEST 2021
#
#

#
#

@<TRIPOS>MOLECULE
SAMPL8-8_micro000_c0
24 25
SMALL
USER_CHARGES

@<TRIPOS>ATOM
1 C 0.695300 -1.161400 0.062700 C 0 XO 0.000000
2 C 1.158900 0.107500 -0.257700 C 1 XO 0.000000
3 C -0.970400 0.333000 -0.079100 C 2 XO 0.000000
4 C -2.944200 -1.564900 0.530200 C 3 XO 0.000000
5 C -3.301900 -0.212500 0.277500 C 4 XO 0.000000
6 C -1.636000 -1.963400 0.479900 C 5 XO 0.000000
7 C -2.336800 0.727100 -0.022700 C 6 XO 0.000000
8 C 2.557000 0.520500 -0.501100 C 7 XO 0.000000
9 C 4.815500 -0.227700 -0.600700 C 8 XO 0.000000
10 C -2.691400 2.164900 -0.290200 C 9 XO 0.000000
11 N 0.134800 1.023500 -0.343700 N 10 XO 0.000000
12 N -0.668900 -1.029800 0.179800 N 11 XO 0.000000
13 O 2.905700 1.659900 -0.782900 O 12 XO 0.000000
14 O 3.408900 -0.524400 -0.375000 O 13 XO 0.000000
15 F -2.119000 3.016700 0.614300 F 14 XO 0.000000
16 F -4.034900 2.380300 -0.231800 F 15 XO 0.000000
17 F -2.280800 2.579400 -1.526200 F 16 XO 0.000000
18 H 1.197400 -2.110000 0.210700 H 17 XO 0.000000
19 H -3.713100 -2.298000 0.766300 H 18 XO 0.000000
20 H -4.350200 0.077800 0.322500 H 19 XO 0.000000
21 H -1.292900 -2.979700 0.661400 H 20 XO 0.000000
22 H 4.966000 0.142800 -1.622400 H 21 XO 0.000000
23 H 5.167200 0.518200 0.123000 H 22 XO 0.000000
24 H 5.333900 -1.179500 -0.456100 H 23 XO 0.000000

@<TRIPOS>BOND
1 1 2 ar
2 1 12 ar
3 2 8 1
4 2 11 ar
5 3 7 ar
6 3 11 ar
7 3 12 ar
8 4 5 ar
9 4 6 ar
10 5 7 ar
11 6 12 ar
12 7 10 1
13 8 13 2
14 8 14 1
15 9 14 1
16 10 15 1
17 10 16 1
18 10 17 1
19 1 18 1
20 4 19 1
21 5 20 1
22 6 21 1
23 9 22 1
24 9 23 1
25 9 24 1

@<COSMOlogic>TOTAL_CHARGE
0.0
