# Created by COSMOvis on Mon Aug 09 22:24:20 CEST 2021
#
#

#
#

@<TRIPOS>MOLECULE
SAMPL8-13_micro002_c0
48 51
SMALL
USER_CHARGES

@<TRIPOS>ATOM
1 C -3.642700 2.595000 0.488500 C 0 XO 0.000000
2 C -2.723700 1.413000 0.198800 C 1 XO 0.000000
3 O -2.619400 0.673400 1.448000 O 2 XO 0.000000
4 C -1.631700 -0.270900 1.563900 C 3 XO 0.000000
5 C -0.564100 -0.484600 0.638200 C 4 XO 0.000000
6 C 0.279300 -1.487100 1.057400 C 5 XO 0.000000
7 S -0.204600 -2.179500 2.593000 S 6 XO 0.000000
8 C -1.602900 -1.117800 2.668000 C 7 XO 0.000000
9 C -2.497700 -1.297400 3.860400 C 8 XO 0.000000
10 N -3.589300 -0.561200 4.007200 N 9 XO 0.000000
11 O -2.114400 -2.202100 4.687300 O 10 XO -1.000000
12 N 1.441100 -1.935200 0.394000 N 11 XO 0.000000
13 C 1.692300 -3.219100 -0.064100 C 12 XO 0.000000
14 N 2.871000 -3.356500 -0.638200 N 13 XO 0.000000
15 C 3.453900 -2.096200 -0.567600 C 14 XO 0.000000
16 C 4.706300 -1.661000 -1.027200 C 15 XO 0.000000
17 C 5.055400 -0.329000 -0.818100 C 16 XO 0.000000
18 C 4.163900 0.539800 -0.153800 C 17 XO 0.000000
19 C 2.907600 0.148900 0.311900 C 18 XO 0.000000
20 C 2.576900 -1.185100 0.082300 C 19 XO 0.000000
21 S 4.672100 2.261800 0.112100 S 20 XO 0.000000
22 C 5.757400 2.217600 1.564100 C 21 XO 0.000000
23 O 5.491600 2.693700 -1.072200 O 22 XO 0.000000
24 O 3.448400 3.060700 0.462700 O 23 XO 0.000000
25 C -3.258000 0.529800 -0.918700 C 24 XO 0.000000
26 C -4.192100 -0.482100 -0.636800 C 25 XO 0.000000
27 C -4.729500 -1.280900 -1.647600 C 26 XO 0.000000
28 C -4.341500 -1.079300 -2.976700 C 27 XO 0.000000
29 C -3.417200 -0.078800 -3.289100 C 28 XO 0.000000
30 C -2.892600 0.707100 -2.261000 C 29 XO 0.000000
31 Cl -1.723200 1.974600 -2.707100 Cl 30 XO 0.000000
32 H -4.636000 2.242500 0.798600 H 31 XO 0.000000
33 H -3.216300 3.222700 1.282700 H 32 XO 0.000000
34 H -3.757800 3.206300 -0.416900 H 33 XO 0.000000
35 H -1.725100 1.789400 -0.067700 H 34 XO 0.000000
36 H -0.426800 0.047500 -0.300900 H 35 XO 0.000000
37 H -3.673600 0.085400 3.214100 H 36 XO 0.000000
38 H 0.949500 -4.004500 0.055200 H 37 XO 0.000000
39 H 5.384700 -2.345700 -1.537000 H 38 XO 0.000000
40 H 6.013900 0.046900 -1.176000 H 39 XO 0.000000
41 H 2.240800 0.849200 0.814600 H 40 XO 0.000000
42 H 6.073300 3.253000 1.739700 H 41 XO 0.000000
43 H 5.180000 1.829400 2.410300 H 42 XO 0.000000
44 H 6.614800 1.575800 1.334100 H 43 XO 0.000000
45 H -4.485900 -0.642300 0.401900 H 44 XO 0.000000
46 H -5.450700 -2.060500 -1.398100 H 45 XO 0.000000
47 H -4.753300 -1.697600 -3.775500 H 46 XO 0.000000
48 H -3.104200 0.090500 -4.319400 H 47 XO 0.000000

@<TRIPOS>BOND
1 1 2 1
2 2 3 1
3 2 25 1
4 3 4 1
5 4 5 ar
6 4 8 ar
7 5 6 ar
8 6 7 ar
9 6 12 1
10 7 8 ar
11 8 9 1
12 9 10 2
13 9 11 1
14 12 13 ar
15 12 20 ar
16 13 14 ar
17 14 15 ar
18 15 16 ar
19 15 20 ar
20 16 17 ar
21 17 18 ar
22 18 19 ar
23 18 21 1
24 19 20 ar
25 21 22 1
26 21 23 2
27 21 24 2
28 25 26 ar
29 25 30 ar
30 26 27 ar
31 27 28 ar
32 28 29 ar
33 29 30 ar
34 30 31 1
35 1 32 1
36 1 33 1
37 1 34 1
38 2 35 1
39 5 36 1
40 10 37 1
41 13 38 1
42 16 39 1
43 17 40 1
44 19 41 1
45 22 42 1
46 22 43 1
47 22 44 1
48 26 45 1
49 27 46 1
50 28 47 1
51 29 48 1

@<COSMOlogic>TOTAL_CHARGE
-1.0
