# Created by COSMOvis on Mon Aug 09 22:24:21 CEST 2021
#
#

#
#

@<TRIPOS>MOLECULE
SAMPL8-16_micro007_c0
35 36
SMALL
USER_CHARGES

@<TRIPOS>ATOM
1 C 7.305500 -5.468600 1.679200 C 0 XO 0.000000
2 C 6.468600 -6.642000 1.162700 C 1 XO 0.000000
3 C 6.189300 -7.686700 2.246600 C 2 XO 0.000000
4 C 7.136400 -7.288600 -0.052600 C 3 XO 0.000000
5 O 5.183000 -6.143000 0.591000 O 4 XO 0.000000
6 C 4.272100 -5.475300 1.360800 C 5 XO 0.000000
7 O 4.381700 -5.232000 2.563200 O 6 XO 0.000000
8 N 3.203000 -5.113600 0.582100 N 7 XO 0.000000
9 C 2.008900 -4.561700 1.123200 C 8 XO 0.000000
10 C 1.615200 -3.306200 0.759700 C 9 XO 0.000000
11 N 2.283800 -2.420300 -0.082700 N 10 XO 0.000000
12 C 1.573600 -1.230400 -0.212500 C 11 XO 0.000000
13 C 1.834200 -0.060600 -0.919900 C 12 XO 0.000000
14 C 0.881000 0.974100 -0.838900 C 13 XO 0.000000
15 C -0.284900 0.829200 -0.076900 C 14 XO 0.000000
16 C -0.548600 -0.355200 0.639300 C 15 XO 0.000000
17 C 0.393600 -1.377000 0.559500 C 16 XO 0.000000
18 N 0.444900 -2.644400 1.129600 N 17 XO 0.000000
19 H 8.300400 -5.835500 1.970400 H 18 XO 0.000000
20 H 6.837200 -4.997400 2.551000 H 19 XO 0.000000
21 H 7.438300 -4.714100 0.890100 H 20 XO 0.000000
22 H 5.542900 -8.484600 1.852700 H 21 XO 0.000000
23 H 5.708900 -7.235100 3.121900 H 22 XO 0.000000
24 H 7.139100 -8.142200 2.562700 H 23 XO 0.000000
25 H 7.300500 -6.547200 -0.847000 H 24 XO 0.000000
26 H 6.515700 -8.103400 -0.451500 H 25 XO 0.000000
27 H 8.110100 -7.705400 0.239700 H 26 XO 0.000000
28 H 3.209100 -5.473500 -0.372700 H 27 XO 0.000000
29 H 1.404400 -5.160000 1.804900 H 28 XO 0.000000
30 H 3.203200 -2.611400 -0.466300 H 29 XO 0.000000
31 H 2.743000 0.051800 -1.512500 H 30 XO 0.000000
32 H 1.059500 1.903300 -1.382400 H 31 XO 0.000000
33 H -1.006200 1.646900 -0.032400 H 32 XO 0.000000
34 H -1.456100 -0.467000 1.234100 H 33 XO 0.000000
35 H -0.257400 -3.046500 1.740600 H 34 XO 0.000000

@<TRIPOS>BOND
1 1 2 1
2 2 3 1
3 2 4 1
4 2 5 1
5 5 6 1
6 6 7 2
7 6 8 1
8 8 9 1
9 9 10 2
10 10 11 1
11 10 18 1
12 11 12 1
13 12 13 ar
14 12 17 ar
15 13 14 ar
16 14 15 ar
17 15 16 ar
18 16 17 ar
19 17 18 1
20 1 19 1
21 1 20 1
22 1 21 1
23 3 22 1
24 3 23 1
25 3 24 1
26 4 25 1
27 4 26 1
28 4 27 1
29 8 28 1
30 9 29 1
31 11 30 1
32 13 31 1
33 14 32 1
34 15 33 1
35 16 34 1
36 18 35 1

@<COSMOlogic>TOTAL_CHARGE
0.0
