# Created by COSMOvis on Mon Aug 09 22:24:23 CEST 2021
#
#

#
#

@<TRIPOS>MOLECULE
SAMPL8-22_micro000_c0
26 27
SMALL
USER_CHARGES

@<TRIPOS>ATOM
1 C 3.925300 -0.355000 0.023500 C 0 XO 0.000000
2 O 2.713200 -1.135700 0.057700 O 1 XO 0.000000
3 C 1.532000 -0.455700 0.069200 C 2 XO 0.000000
4 C 1.406300 0.927100 0.046900 C 3 XO 0.000000
5 C 0.135700 1.536800 0.061100 C 4 XO 0.000000
6 C -1.025600 0.732700 0.099200 C 5 XO 0.000000
7 C -0.900400 -0.671700 0.122100 C 6 XO 0.000000
8 C 0.354000 -1.271600 0.108500 C 7 XO 0.000000
9 O 0.573500 -2.613000 0.129900 O 8 XO 0.000000
10 C -0.581200 -3.478800 0.173100 C 9 XO 0.000000
11 N -2.316900 1.276000 0.115700 N 10 XO 0.000000
12 C -2.389000 2.556800 0.094100 C 11 XO 0.000000
13 N -1.340100 3.427000 0.057100 N 12 XO 0.000000
14 C 0.005700 2.995700 0.037300 C 13 XO 0.000000
15 N 1.013200 3.805100 0.001800 N 14 XO 0.000000
16 Cl -3.974400 3.340700 0.112700 Cl 15 XO 0.000000
17 H 3.971800 0.259800 -0.887900 H 16 XO 0.000000
18 H 4.741400 -1.084200 0.020500 H 17 XO 0.000000
19 H 4.003800 0.288300 0.912800 H 18 XO 0.000000
20 H 2.283800 1.570700 0.017400 H 19 XO 0.000000
21 H -1.810700 -1.268000 0.151500 H 20 XO 0.000000
22 H -1.210800 -3.337400 -0.717600 H 21 XO 0.000000
23 H -1.172000 -3.298900 1.083400 H 22 XO 0.000000
24 H -0.179700 -4.496700 0.186200 H 23 XO 0.000000
25 H -1.525100 4.430000 0.042500 H 24 XO 0.000000
26 H 0.707400 4.786400 -0.009800 H 25 XO 0.000000

@<TRIPOS>BOND
1 1 2 1
2 2 3 1
3 3 4 ar
4 3 8 ar
5 4 5 ar
6 5 6 ar
7 5 14 1
8 6 7 ar
9 6 11 1
10 7 8 ar
11 8 9 1
12 9 10 1
13 11 12 2
14 12 13 1
15 12 16 1
16 13 14 1
17 14 15 2
18 1 17 1
19 1 18 1
20 1 19 1
21 4 20 1
22 7 21 1
23 10 22 1
24 10 23 1
25 10 24 1
26 13 25 1
27 15 26 1

@<COSMOlogic>TOTAL_CHARGE
0.0
