# Created by COSMOvis on Mon Aug 09 22:24:23 CEST 2021
#
#

#
#

@<TRIPOS>MOLECULE
SAMPL8-3_micro006_c0
32 33
SMALL
USER_CHARGES

@<TRIPOS>ATOM
1 C 0.763700 3.944000 4.230700 C 0 XO 0.000000
2 C 0.593000 2.535200 4.452800 C 1 XO 0.000000
3 C 1.834200 -1.240800 -0.346800 C 2 XO 0.000000
4 C 1.578000 -0.447800 2.314400 C 3 XO 0.000000
5 C -0.051000 4.269600 3.184500 C 4 XO 0.000000
6 C 0.617800 -0.685600 0.071200 C 5 XO 0.000000
7 C 0.465700 -0.272100 1.443900 C 6 XO 0.000000
8 C 2.910100 -1.409700 0.518800 C 7 XO 0.000000
9 C 2.757000 -1.006100 1.863500 C 8 XO 0.000000
10 C -0.317000 2.096000 3.528700 C 9 XO 0.000000
11 C -0.483400 -0.531600 -0.893800 C 10 XO 0.000000
12 C -0.939300 0.765300 3.245900 C 11 XO 0.000000
13 N 5.720800 -1.127800 0.031300 N 12 XO 0.000000
14 N -0.694600 0.255000 1.895000 N 13 XO 0.000000
15 O -0.179800 -0.959900 -2.143700 O 14 XO 0.000000
16 O 4.739600 -3.383000 0.675700 O 15 XO 0.000000
17 O 4.199200 -2.327400 -1.613700 O 16 XO 0.000000
18 O -0.726000 3.154900 2.741200 O 17 XO 0.000000
19 O -1.595500 -0.059600 -0.627900 O 18 XO 0.000000
20 S 4.407800 -2.182000 -0.143800 S 19 XO 0.000000
21 Cl 4.073600 -1.176500 3.023800 Cl 20 XO 0.000000
22 H 1.411900 4.622400 4.777600 H 21 XO 0.000000
23 H 1.084200 1.927200 5.207300 H 22 XO 0.000000
24 H 1.946300 -1.549300 -1.384800 H 23 XO 0.000000
25 H 1.507400 -0.140200 3.354300 H 24 XO 0.000000
26 H -0.264400 5.189800 2.651500 H 25 XO 0.000000
27 H -0.584600 0.047800 4.000100 H 26 XO 0.000000
28 H -2.031100 0.824300 3.356200 H 27 XO 0.000000
29 H 5.548300 -0.245100 -0.461300 H 28 XO 0.000000
30 H 5.921400 -0.951800 1.021700 H 29 XO 0.000000
31 H -0.971500 -0.817800 -2.705300 H 30 XO 0.000000
32 H -1.429200 0.360300 1.188800 H 31 XO 0.000000

@<TRIPOS>BOND
1 1 2 ar
2 1 5 ar
3 2 10 ar
4 3 6 ar
5 3 8 ar
6 4 7 ar
7 4 9 ar
8 5 18 ar
9 6 7 ar
10 6 11 1
11 7 14 1
12 8 9 ar
13 8 20 1
14 9 21 1
15 10 12 1
16 10 18 ar
17 11 15 1
18 11 19 2
19 12 14 1
20 13 20 1
21 16 20 2
22 17 20 2
23 1 22 1
24 2 23 1
25 3 24 1
26 4 25 1
27 5 26 1
28 12 27 1
29 12 28 1
30 13 29 1
31 13 30 1
32 14 32 1
33 15 31 1

@<COSMOlogic>TOTAL_CHARGE
0.0
