# Created by COSMOvis on Mon Aug 09 22:24:20 CEST 2021
#
#

#
#

@<TRIPOS>MOLECULE
SAMPL8-12_micro003_c0
41 43
SMALL
USER_CHARGES

@<TRIPOS>ATOM
1 C -6.129500 -0.284600 0.386700 C 0 XO 0.000000
2 C -4.659400 -0.157600 0.067200 C 1 XO 0.000000
3 C -3.766600 0.422500 0.988300 C 2 XO 0.000000
4 C -2.402900 0.524300 0.707200 C 3 XO 0.000000
5 C -1.877800 0.053900 -0.509700 C 4 XO 0.000000
6 C -2.765300 -0.518300 -1.431900 C 5 XO 0.000000
7 C -4.133300 -0.622400 -1.147500 C 6 XO 0.000000
8 C -0.397400 0.173800 -0.817400 C 7 XO 0.000000
9 C 0.478600 -0.844000 -0.097700 C 8 XO 0.000000
10 C -0.052500 -2.029100 0.341400 C 9 XO 0.000000
11 N 0.652400 -2.892300 1.115700 N 10 XO 0.000000
12 C 1.926700 -2.578900 1.610100 C 11 XO 0.000000
13 N 2.472800 -3.411400 2.454300 N 12 XO 0.000000
14 N 2.510300 -1.429300 1.132400 N 13 XO 0.000000
15 C 1.857700 -0.611700 0.304700 C 14 XO 0.000000
16 N 2.533200 0.530600 -0.092600 N 15 XO 0.000000
17 C 2.556400 0.952500 -1.506900 C 16 XO 0.000000
18 C 2.875100 2.439200 -1.605500 C 17 XO 0.000000
19 O 4.125100 2.751500 -0.967200 O 18 XO 0.000000
20 C 4.082300 2.350700 0.414700 C 19 XO 0.000000
21 C 3.804000 0.859200 0.572600 C 20 XO 0.000000
22 H -6.714800 -0.522400 -0.511900 H 21 XO 0.000000
23 H -6.306000 -1.086900 1.121200 H 22 XO 0.000000
24 H -6.526900 0.643900 0.822300 H 23 XO 0.000000
25 H -4.148400 0.806200 1.938000 H 24 XO 0.000000
26 H -1.735000 0.983400 1.440700 H 25 XO 0.000000
27 H -2.385900 -0.882400 -2.390200 H 26 XO 0.000000
28 H -4.802700 -1.068200 -1.887500 H 27 XO 0.000000
29 H -0.054300 1.180200 -0.529700 H 28 XO 0.000000
30 H -0.267200 0.101500 -1.909800 H 29 XO 0.000000
31 H -1.077800 -2.323700 0.122700 H 30 XO 0.000000
32 H 0.218900 -3.754800 1.440200 H 31 XO 0.000000
33 H 3.399900 -3.045200 2.699200 H 32 XO 0.000000
34 H 1.601600 0.746400 -1.997200 H 33 XO 0.000000
35 H 3.336600 0.374800 -2.037900 H 34 XO 0.000000
36 H 2.978300 2.733300 -2.657900 H 35 XO 0.000000
37 H 2.062800 3.031700 -1.143100 H 36 XO 0.000000
38 H 5.063900 2.595800 0.840900 H 37 XO 0.000000
39 H 3.305600 2.934300 0.944000 H 38 XO 0.000000
40 H 4.633800 0.268800 0.141600 H 39 XO 0.000000
41 H 3.727700 0.604800 1.635600 H 40 XO 0.000000

@<TRIPOS>BOND
1 1 2 1
2 2 3 ar
3 2 7 ar
4 3 4 ar
5 4 5 ar
6 5 6 ar
7 5 8 1
8 6 7 ar
9 8 9 1
10 9 10 2
11 9 15 1
12 10 11 1
13 11 12 1
14 12 13 2
15 12 14 1
16 14 15 2
17 15 16 1
18 16 17 1
19 16 21 1
20 17 18 1
21 18 19 1
22 19 20 1
23 20 21 1
24 1 22 1
25 1 23 1
26 1 24 1
27 3 25 1
28 4 26 1
29 6 27 1
30 7 28 1
31 8 29 1
32 8 30 1
33 10 31 1
34 11 32 1
35 13 33 1
36 17 34 1
37 17 35 1
38 18 36 1
39 18 37 1
40 20 38 1
41 20 39 1
42 21 40 1
43 21 41 1

@<COSMOlogic>TOTAL_CHARGE
0.0
