# Created by COSMOvis on Mon Aug 09 22:24:23 CEST 2021
#
#

#
#

@<TRIPOS>MOLECULE
SAMPL8-5_micro000_c0
30 31
SMALL
USER_CHARGES

@<TRIPOS>ATOM
1 C -2.537200 2.556100 -0.336700 C 0 XO 0.000000
2 C -1.196100 2.857300 -0.075500 C 1 XO 0.000000
3 C 4.507500 -0.172300 -0.088700 C 2 XO 0.000000
4 C -2.922300 1.218500 -0.471400 C 3 XO 0.000000
5 C -0.259100 1.831800 0.059300 C 4 XO 0.000000
6 C 3.898700 -0.716000 1.044600 C 5 XO 0.000000
7 C 3.726100 0.234900 -1.172500 C 6 XO 0.000000
8 C -1.995700 0.173500 -0.354600 C 7 XO 0.000000
9 C -0.643700 0.486200 -0.073300 C 8 XO 0.000000
10 C 1.670200 -0.408100 0.026200 C 9 XO 0.000000
11 C 2.510100 -0.815000 1.091300 C 10 XO 0.000000
12 C 2.340600 0.094900 -1.116100 C 11 XO 0.000000
13 C -2.588100 -2.053300 0.693700 C 12 XO 0.000000
14 C -2.444300 -1.256900 -0.587600 C 13 XO 0.000000
15 N 0.284200 -0.572700 0.079600 N 14 XO 0.000000
16 O -3.812000 -2.606000 0.832800 O 15 XO 0.000000
17 Cl 1.763000 -1.486900 2.549300 Cl 16 XO 0.000000
18 Cl 1.408900 0.509700 -2.558900 Cl 17 XO 0.000000
19 H -3.275600 3.352500 -0.440500 H 18 XO 0.000000
20 H -0.876000 3.894900 0.035900 H 19 XO 0.000000
21 H 5.592500 -0.076600 -0.132300 H 20 XO 0.000000
22 H -3.963700 0.974300 -0.694300 H 21 XO 0.000000
23 H 0.781600 2.071000 0.283600 H 22 XO 0.000000
24 H 4.494100 -1.047000 1.894900 H 23 XO 0.000000
25 H 4.189100 0.634000 -2.074500 H 24 XO 0.000000
26 H -3.392000 -1.272100 -1.137200 H 25 XO 0.000000
27 H -1.688700 -1.787000 -1.193200 H 26 XO 0.000000
28 H -3.826700 -3.115400 1.673600 H 27 XO 0.000000
29 O -1.697100 -2.199200 1.524500 O 28 XO 0.000000
30 H -0.048600 -1.305200 0.718400 H 29 XO 0.000000

@<TRIPOS>BOND
1 1 2 ar
2 1 4 ar
3 2 5 ar
4 3 6 ar
5 3 7 ar
6 4 8 ar
7 5 9 ar
8 6 11 ar
9 7 12 ar
10 8 9 ar
11 8 14 1
12 9 15 1
13 10 11 ar
14 10 12 ar
15 10 15 1
16 11 17 1
17 12 18 1
18 13 14 1
19 13 16 1
20 13 29 2
21 1 19 1
22 2 20 1
23 3 21 1
24 4 22 1
25 5 23 1
26 6 24 1
27 7 25 1
28 14 26 1
29 14 27 1
30 15 30 1
31 16 28 1

@<COSMOlogic>TOTAL_CHARGE
0.0
