# Created by COSMOvis on Mon Aug 09 22:24:20 CEST 2021
#
#

#
#

@<TRIPOS>MOLECULE
SAMPL8-11_micro003_c0
44 46
SMALL
USER_CHARGES

@<TRIPOS>ATOM
1 C 3.374500 -1.247300 -2.786000 C 0 XO 0.000000
2 C 3.106700 -0.121100 -0.228500 C 1 XO 0.000000
3 C 1.931000 -0.310200 -1.043500 C 2 XO 0.000000
4 C 2.120400 -0.968300 -2.279100 C 3 XO 0.000000
5 C 4.372200 -0.357300 -0.817700 C 4 XO 0.000000
6 C 5.574100 -0.010300 -0.137600 C 5 XO 0.000000
7 C 5.500300 0.569800 1.085200 C 6 XO 0.000000
8 C 4.232600 0.796600 1.755300 C 7 XO 0.000000
9 C -1.003400 2.548100 -0.555200 C 8 XO 0.000000
10 C -2.832000 0.970900 -1.313000 C 9 XO 0.000000
11 C -2.046900 3.430200 0.146900 C 10 XO 0.000000
12 C -3.879000 1.850400 -0.612800 C 11 XO 0.000000
13 C -1.453800 1.078700 -0.629300 C 12 XO 0.000000
14 C -3.399500 3.300400 -0.551800 C 13 XO 0.000000
15 C 1.831100 0.352700 1.887100 C 14 XO 0.000000
16 C -0.463800 0.205300 -1.383800 C 15 XO 0.000000
17 N 4.449700 -0.908600 -2.064000 N 16 XO 1.000000
18 N 3.065000 0.364000 1.069600 N 17 XO 0.000000
19 N -4.428400 4.144100 0.170500 N 18 XO 1.000000
20 O 4.143500 1.300100 2.884500 O 19 XO 0.000000
21 O 0.774400 0.145700 -0.577100 O 20 XO 0.000000
22 F 1.062500 -1.322200 -3.036800 F 21 XO 0.000000
23 H 3.525800 -1.717400 -3.754500 H 22 XO 0.000000
24 H 6.533000 -0.204100 -0.620900 H 23 XO 0.000000
25 H 6.394700 0.867100 1.630500 H 24 XO 0.000000
26 H -0.043200 2.633100 -0.027100 H 25 XO 0.000000
27 H -0.835800 2.923000 -1.580100 H 26 XO 0.000000
28 H -2.743300 1.278400 -2.368900 H 27 XO 0.000000
29 H -3.178200 -0.073300 -1.311700 H 28 XO 0.000000
30 H -2.151800 3.117200 1.199700 H 29 XO 0.000000
31 H -1.715900 4.479700 0.146300 H 30 XO 0.000000
32 H -4.839000 1.788800 -1.147000 H 31 XO 0.000000
33 H -4.046000 1.480300 0.413300 H 32 XO 0.000000
34 H -1.550000 0.676600 0.394600 H 33 XO 0.000000
35 H -3.343800 3.723500 -1.564800 H 34 XO 0.000000
36 H 2.151100 0.315900 2.932100 H 35 XO 0.000000
37 H 1.241700 1.262500 1.729100 H 36 XO 0.000000
38 H 1.237000 -0.529600 1.643700 H 37 XO 0.000000
39 H -0.840900 -0.817900 -1.500100 H 38 XO 0.000000
40 H -0.221400 0.635100 -2.364800 H 39 XO 0.000000
41 H -4.154400 5.135400 0.199200 H 40 XO 0.000000
42 H -5.348200 4.097700 -0.288400 H 41 XO 0.000000
43 H -4.556700 3.834300 1.144100 H 42 XO 0.000000
44 H 5.377000 -1.072500 -2.461000 H 43 XO 0.000000

@<TRIPOS>BOND
1 1 4 2
2 1 17 1
3 2 3 2
4 2 5 1
5 2 18 1
6 3 4 1
7 3 21 1
8 4 22 1
9 5 6 1
10 5 17 2
11 6 7 2
12 7 8 1
13 8 18 1
14 8 20 2
15 9 11 1
16 9 13 1
17 10 12 1
18 10 13 1
19 11 14 1
20 12 14 1
21 13 16 1
22 14 19 1
23 15 18 1
24 16 21 1
25 1 23 1
26 6 24 1
27 7 25 1
28 9 26 1
29 9 27 1
30 10 28 1
31 10 29 1
32 11 30 1
33 11 31 1
34 12 32 1
35 12 33 1
36 13 34 1
37 14 35 1
38 15 36 1
39 15 37 1
40 15 38 1
41 16 39 1
42 16 40 1
43 17 44 1
44 19 41 1
45 19 42 1
46 19 43 1

@<COSMOlogic>TOTAL_CHARGE
2.0
