# Created by COSMOvis on Mon Aug 09 22:24:20 CEST 2021
#
#

#
#

@<TRIPOS>MOLECULE
SAMPL8-14_extra002_c0
44 45
SMALL
USER_CHARGES

@<TRIPOS>ATOM
1 C -0.484100 -0.115200 -2.432300 C 0 XO 0.000000
2 C -0.465700 0.653200 -0.152600 C 1 XO 0.000000
3 C 3.197600 1.904100 0.141400 C 2 XO 0.000000
4 C 0.164500 0.575600 -1.403500 C 3 XO 0.000000
5 C -1.734600 -0.713700 -2.231000 C 4 XO 0.000000
6 C -1.716400 0.077300 0.113600 C 5 XO 0.000000
7 C 2.576400 0.929300 -0.628600 C 6 XO 0.000000
8 C -2.337900 -0.611300 -0.960200 C 7 XO 0.000000
9 C 3.036900 -0.396800 -0.432900 C 8 XO 0.000000
10 C 4.601800 0.443100 1.195000 C 9 XO 0.000000
11 C -2.432900 -1.457300 -3.343800 C 10 XO 0.000000
12 C -3.729000 0.928400 1.398500 C 11 XO 0.000000
13 C -2.582200 -1.222100 2.109100 C 12 XO 0.000000
14 C -1.493000 0.984100 2.494100 C 13 XO 0.000000
15 C 1.508800 1.250100 -1.647200 C 14 XO 0.000000
16 C -2.371400 0.189600 1.506700 C 15 XO 0.000000
17 N 4.186400 1.700900 1.039200 N 16 XO 0.000000
18 N 4.039600 -0.592700 0.482100 N 17 XO 0.000000
19 N 2.569700 -1.458200 -1.094300 N 18 XO 0.000000
20 N 5.581300 0.150100 2.059600 N 19 XO 1.000000
21 O -3.568200 -1.194300 -0.743500 O 20 XO 0.000000
22 H -0.018600 -0.186700 -3.419700 H 21 XO 0.000000
23 H 0.046200 1.190200 0.646000 H 22 XO 0.000000
24 H 2.881300 2.944600 0.026700 H 23 XO 0.000000
25 H -3.409600 -1.008300 -3.592300 H 24 XO 0.000000
26 H -2.611700 -2.515200 -3.086300 H 25 XO 0.000000
27 H -1.826100 -1.443100 -4.257600 H 26 XO 0.000000
28 H -4.184800 1.012500 2.397300 H 27 XO 0.000000
29 H -3.585400 1.946400 1.004700 H 28 XO 0.000000
30 H -4.430100 0.398500 0.742800 H 29 XO 0.000000
31 H -3.038600 -1.134700 3.107600 H 30 XO 0.000000
32 H -1.618400 -1.741700 2.221300 H 31 XO 0.000000
33 H -3.238300 -1.838200 1.483100 H 32 XO 0.000000
34 H -0.518100 0.502000 2.661100 H 33 XO 0.000000
35 H -2.007600 1.035900 3.464800 H 34 XO 0.000000
36 H -1.317700 2.016300 2.155200 H 35 XO 0.000000
37 H 1.866500 0.974500 -2.653400 H 36 XO 0.000000
38 H 1.382700 2.344200 -1.661500 H 37 XO 0.000000
39 H 1.734200 -1.362500 -1.667400 H 38 XO 0.000000
40 H 2.895400 -2.401900 -0.901300 H 39 XO 0.000000
41 H 5.929900 -0.793000 2.197200 H 40 XO 0.000000
42 H 6.004500 0.905700 2.588800 H 41 XO 0.000000
43 H -3.863200 -1.631200 -1.565400 H 42 XO 0.000000
44 H 4.380000 -1.543200 0.638500 H 43 XO 0.000000

@<TRIPOS>BOND
1 1 4 ar
2 1 5 ar
3 2 4 ar
4 2 6 ar
5 3 7 1
6 3 17 2
7 4 15 1
8 5 8 ar
9 5 11 1
10 6 8 ar
11 6 16 1
12 7 9 2
13 7 15 1
14 8 21 1
15 9 18 1
16 9 19 1
17 10 17 1
18 10 18 1
19 10 20 2
20 12 16 1
21 13 16 1
22 14 16 1
23 1 22 1
24 2 23 1
25 3 24 1
26 11 25 1
27 11 26 1
28 11 27 1
29 12 28 1
30 12 29 1
31 12 30 1
32 13 31 1
33 13 32 1
34 13 33 1
35 14 34 1
36 14 35 1
37 14 36 1
38 15 37 1
39 15 38 1
40 18 44 1
41 19 39 1
42 19 40 1
43 20 41 1
44 20 42 1
45 21 43 1

@<COSMOlogic>TOTAL_CHARGE
1.0
