# Created by COSMOvis on Mon Aug 09 22:24:22 CEST 2021
#
#

#
#

@<TRIPOS>MOLECULE
SAMPL8-21_micro015_c0
38 39
SMALL
USER_CHARGES

@<TRIPOS>ATOM
1 C -2.915700 0.663100 2.013900 C 0 XO 0.000000
2 O -1.996600 -0.384800 1.684600 O 1 XO 0.000000
3 C -0.929900 -0.058800 0.858100 C 2 XO 0.000000
4 C -0.723400 1.216000 0.329600 C 3 XO 0.000000
5 C 0.387200 1.492300 -0.496600 C 4 XO 0.000000
6 C 1.267000 0.440100 -0.780300 C 5 XO 0.000000
7 C 1.063400 -0.842500 -0.251400 C 6 XO 0.000000
8 C -0.025900 -1.167800 0.620900 C 7 XO 0.000000
9 O -0.204100 -2.338200 1.150500 O 8 XO -1.000000
10 O 2.020100 -1.824000 -0.551200 O 9 XO 0.000000
11 C 1.489500 -2.934700 -1.304800 C 10 XO 0.000000
12 C 0.627700 2.898600 -1.040000 C 11 XO 0.000000
13 C -0.557600 3.535100 -1.733900 C 12 XO 0.000000
14 C -1.136500 2.991000 -2.905200 C 13 XO 0.000000
15 N -0.583600 1.847000 -3.476100 N 14 XO 0.000000
16 N -2.179700 3.533200 -3.554800 N 15 XO 0.000000
17 C -2.722600 4.705700 -3.051500 C 16 XO 0.000000
18 N -2.229700 5.296600 -1.893300 N 17 XO 0.000000
19 C -1.201400 4.710200 -1.296700 C 18 XO 0.000000
20 O -0.701800 5.287000 -0.151400 O 19 XO 0.000000
21 C -1.351800 6.483300 0.323600 C 20 XO 0.000000
22 N -3.744600 5.305500 -3.656500 N 21 XO -1.000000
23 H -3.414900 1.063400 1.115600 H 22 XO 0.000000
24 H -2.414300 1.489800 2.544400 H 23 XO 0.000000
25 H -3.665100 0.209300 2.673000 H 24 XO 0.000000
26 H -1.431500 2.020800 0.534500 H 25 XO 0.000000
27 H 2.138600 0.604100 -1.422500 H 26 XO 0.000000
28 H 1.129200 -2.595100 -2.291200 H 27 XO 0.000000
29 H 0.670500 -3.416600 -0.751000 H 28 XO 0.000000
30 H 2.316500 -3.642900 -1.446400 H 29 XO 0.000000
31 H 1.488100 2.846600 -1.732800 H 30 XO 0.000000
32 H 0.941600 3.566000 -0.222200 H 31 XO 0.000000
33 H -0.144900 1.207500 -2.809700 H 32 XO 0.000000
34 H -1.211200 1.376500 -4.127100 H 33 XO 0.000000
35 H -2.406300 6.293700 0.568000 H 34 XO 0.000000
36 H -1.298200 7.289300 -0.421400 H 35 XO 0.000000
37 H -0.800000 6.766500 1.227500 H 36 XO 0.000000
38 H -3.974900 4.735900 -4.481700 H 37 XO 0.000000

@<TRIPOS>BOND
1 1 2 1
2 2 3 1
3 3 4 ar
4 3 8 ar
5 4 5 ar
6 5 6 ar
7 5 12 1
8 6 7 ar
9 7 8 ar
10 7 10 1
11 8 9 1
12 10 11 1
13 12 13 1
14 13 14 ar
15 13 19 ar
16 14 15 1
17 14 16 ar
18 16 17 ar
19 17 18 ar
20 17 22 1
21 18 19 ar
22 19 20 1
23 20 21 1
24 1 23 1
25 1 24 1
26 1 25 1
27 4 26 1
28 6 27 1
29 11 28 1
30 11 29 1
31 11 30 1
32 12 31 1
33 12 32 1
34 15 33 1
35 15 34 1
36 21 35 1
37 21 36 1
38 21 37 1
39 22 38 1

@<COSMOlogic>TOTAL_CHARGE
-2.0
