# Created by COSMOvis on Mon Aug 09 22:24:20 CEST 2021
#
#

#
#

@<TRIPOS>MOLECULE
SAMPL8-14_extra001_c0
44 45
SMALL
USER_CHARGES

@<TRIPOS>ATOM
1 C -2.115000 -2.982800 2.146300 C 0 XO 0.000000
2 C -3.275300 -1.084400 1.228200 C 1 XO 0.000000
3 C -3.120500 -3.621000 -1.193500 C 2 XO 0.000000
4 C -3.229000 -2.463500 1.478000 C 3 XO 0.000000
5 C -1.066000 -2.154100 2.559400 C 4 XO 0.000000
6 C -2.256200 -0.199700 1.615800 C 5 XO 0.000000
7 C -4.186200 -3.911700 -0.393400 C 6 XO 0.000000
8 C -1.145900 -0.770800 2.286500 C 7 XO 0.000000
9 C -5.177700 -4.788300 -0.975200 C 8 XO 0.000000
10 C -3.998000 -4.962800 -2.952000 C 9 XO 0.000000
11 C 0.132300 -2.713700 3.288000 C 10 XO 0.000000
12 C -3.658400 1.675400 0.588200 C 11 XO 0.000000
13 C -1.174700 1.752700 0.416600 C 12 XO 0.000000
14 C -2.329000 2.115000 2.647900 C 13 XO 0.000000
15 C -4.349100 -3.369300 1.012100 C 14 XO 0.000000
16 C -2.351900 1.312700 1.322600 C 15 XO 0.000000
17 N -3.022400 -4.137400 -2.457100 N 16 XO 0.000000
18 N -5.065200 -5.288800 -2.224000 N 17 XO 0.000000
19 N -6.266100 -5.141600 -0.278000 N 18 XO 0.000000
20 N -3.861700 -5.444800 -4.195300 N 19 XO 1.000000
21 O -0.120100 0.059400 2.687800 O 20 XO 0.000000
22 H -2.056200 -4.053600 2.359300 H 21 XO 0.000000
23 H -4.149600 -0.688500 0.711100 H 22 XO 0.000000
24 H -2.301800 -2.975800 -0.883000 H 23 XO 0.000000
25 H 0.033800 -3.798700 3.416900 H 24 XO 0.000000
26 H 1.072100 -2.534400 2.738200 H 25 XO 0.000000
27 H 0.248300 -2.273900 4.293400 H 26 XO 0.000000
28 H -3.737500 1.172800 -0.387400 H 27 XO 0.000000
29 H -4.550500 1.425800 1.182200 H 28 XO 0.000000
30 H -3.674300 2.760000 0.405300 H 29 XO 0.000000
31 H -1.204800 1.215600 -0.543500 H 30 XO 0.000000
32 H -1.252500 2.830600 0.204800 H 31 XO 0.000000
33 H -0.203900 1.563900 0.890300 H 32 XO 0.000000
34 H -2.408100 3.191400 2.430100 H 33 XO 0.000000
35 H -3.182500 1.834300 3.283800 H 34 XO 0.000000
36 H -1.404600 1.943700 3.211800 H 35 XO 0.000000
37 H -4.441500 -4.221800 1.707100 H 36 XO 0.000000
38 H -5.307100 -2.823300 1.066600 H 37 XO 0.000000
39 H -6.431000 -4.812600 0.667100 H 38 XO 0.000000
40 H -6.956800 -5.758500 -0.697100 H 39 XO 0.000000
41 H -4.584200 -6.051300 -4.569100 H 40 XO 0.000000
42 H -3.066000 -5.217700 -4.782300 H 41 XO 0.000000
43 H 0.565100 -0.473700 3.134900 H 42 XO 0.000000
44 H -2.212700 -3.900400 -3.029100 H 43 XO 0.000000

@<TRIPOS>BOND
1 1 4 ar
2 1 5 ar
3 2 4 ar
4 2 6 ar
5 3 7 2
6 3 17 1
7 4 15 1
8 5 8 ar
9 5 11 1
10 6 8 ar
11 6 16 1
12 7 9 1
13 7 15 1
14 8 21 1
15 9 18 2
16 9 19 1
17 10 17 1
18 10 18 1
19 10 20 2
20 12 16 1
21 13 16 1
22 14 16 1
23 1 22 1
24 2 23 1
25 3 24 1
26 11 25 1
27 11 26 1
28 11 27 1
29 12 28 1
30 12 29 1
31 12 30 1
32 13 31 1
33 13 32 1
34 13 33 1
35 14 34 1
36 14 35 1
37 14 36 1
38 15 37 1
39 15 38 1
40 17 44 1
41 19 39 1
42 19 40 1
43 20 41 1
44 20 42 1
45 21 43 1

@<COSMOlogic>TOTAL_CHARGE
1.0
