# Created by COSMOvis on Mon Aug 09 22:24:23 CEST 2021
#
#

#
#

@<TRIPOS>MOLECULE
SAMPL8-3_micro016_c0
31 32
SMALL
USER_CHARGES

@<TRIPOS>ATOM
1 C 4.335100 1.192500 -0.637300 C 0 XO 0.000000
2 C 3.446500 1.314000 0.485000 C 1 XO 0.000000
3 C -2.451300 -0.649300 -0.261100 C 2 XO 0.000000
4 C -0.354100 0.847500 0.784600 C 3 XO 0.000000
5 C 4.349100 -0.130200 -0.974900 C 4 XO 0.000000
6 C -1.314900 -1.326800 0.218800 C 5 XO 0.000000
7 C -0.226100 -0.566800 0.773900 C 6 XO 0.000000
8 C -2.572800 0.734300 -0.239200 C 7 XO 0.000000
9 C -1.495100 1.463000 0.298700 C 8 XO 0.000000
10 C 2.979400 0.056400 0.759200 C 9 XO 0.000000
11 C -1.255400 -2.791700 0.152400 C 10 XO 0.000000
12 C 2.064000 -0.500900 1.804200 C 11 XO 0.000000
13 N -3.767900 2.436100 -2.160700 N 12 XO 0.000000
14 N 0.876300 -1.176300 1.283400 N 13 XO 0.000000
15 O -2.353900 -3.365700 -0.406500 O 14 XO 0.000000
16 O -4.904700 0.307500 -1.424500 O 15 XO -1.000000
17 O -4.739800 2.189000 0.286600 O 16 XO 0.000000
18 O 3.529400 -0.845900 -0.131400 O 17 XO 0.000000
19 O -0.311300 -3.487000 0.553700 O 18 XO 0.000000
20 S -4.114300 1.499100 -0.919000 S 19 XO 0.000000
21 Cl -1.538400 3.232500 0.369500 Cl 20 XO 0.000000
22 H 4.887700 1.988300 -1.128200 H 21 XO 0.000000
23 H 3.190500 2.223100 1.021800 H 22 XO 0.000000
24 H -3.276900 -1.225500 -0.676400 H 23 XO 0.000000
25 H 0.449300 1.463800 1.181100 H 24 XO 0.000000
26 H 4.852500 -0.708700 -1.742100 H 25 XO 0.000000
27 H 1.778500 0.315100 2.483900 H 26 XO 0.000000
28 H 2.597500 -1.244200 2.413900 H 27 XO 0.000000
29 H -3.339000 3.288700 -1.773600 H 28 XO 0.000000
30 H -2.209700 -4.335900 -0.399300 H 29 XO 0.000000
31 H 0.889500 -2.195700 1.194100 H 30 XO 0.000000

@<TRIPOS>BOND
1 1 2 ar
2 1 5 ar
3 2 10 ar
4 3 6 ar
5 3 8 ar
6 4 7 ar
7 4 9 ar
8 5 18 ar
9 6 7 ar
10 6 11 1
11 7 14 1
12 8 9 ar
13 8 20 1
14 9 21 1
15 10 12 1
16 10 18 ar
17 11 15 1
18 11 19 2
19 12 14 1
20 13 20 2
21 16 20 1
22 17 20 2
23 1 22 1
24 2 23 1
25 3 24 1
26 4 25 1
27 5 26 1
28 12 27 1
29 12 28 1
30 13 29 1
31 14 31 1
32 15 30 1

@<COSMOlogic>TOTAL_CHARGE
-1.0
