# Created by COSMOvis on Mon Aug 09 22:24:21 CEST 2021
#
#

#
#

@<TRIPOS>MOLECULE
SAMPL8-18_micro001_c0
36 38
SMALL
USER_CHARGES

@<TRIPOS>ATOM
1 C 6.327300 1.934500 4.689000 C 0 XO 0.000000
2 C 5.195100 2.023700 5.517200 C 1 XO 0.000000
3 C 6.629600 0.736900 4.046300 C 2 XO 0.000000
4 C 4.366200 0.920100 5.698400 C 3 XO 0.000000
5 C 7.661400 -4.247100 2.989000 C 4 XO 0.000000
6 C 8.186800 -5.397800 2.384100 C 5 XO 0.000000
7 C 8.020600 -3.022900 0.928900 C 6 XO 0.000000
8 C 5.810400 -0.394300 4.209700 C 7 XO 0.000000
9 C 4.676800 -0.281900 5.044800 C 8 XO 0.000000
10 C 7.566600 -3.045500 2.269500 C 9 XO 0.000000
11 C 8.609900 -5.383700 1.052500 C 10 XO 0.000000
12 C 8.516900 -4.171800 0.313900 C 11 XO 0.000000
13 C 6.100900 -1.694900 3.567500 C 12 XO 0.000000
14 C 4.163700 -2.539300 4.524500 C 13 XO 0.000000
15 C 9.245400 -7.697300 1.103200 C 14 XO 0.000000
16 C 8.900300 -3.019900 -1.759200 C 15 XO 0.000000
17 N 3.859900 -1.406800 5.200500 N 16 XO 0.000000
18 N 5.176000 -2.737200 3.761100 N 17 XO 0.000000
19 N 7.163900 -1.823900 2.833200 N 18 XO 0.000000
20 O 9.131000 -6.460100 0.377600 O 19 XO 0.000000
21 O 8.951600 -4.232800 -0.985800 O 20 XO 0.000000
22 Cl 2.981300 -3.843200 4.755200 Cl 21 XO 0.000000
23 H 6.971300 2.804100 4.551800 H 22 XO 0.000000
24 H 4.958800 2.961000 6.022800 H 23 XO 0.000000
25 H 7.506300 0.650300 3.404000 H 24 XO 0.000000
26 H 3.482900 0.978400 6.336800 H 25 XO 0.000000
27 H 7.342800 -4.286000 4.029600 H 26 XO 0.000000
28 H 8.264100 -6.313200 2.970000 H 27 XO 0.000000
29 H 7.965600 -2.082200 0.382400 H 28 XO 0.000000
30 H 8.259500 -8.055500 1.437800 H 29 XO 0.000000
31 H 9.913300 -7.589000 1.972100 H 30 XO 0.000000
32 H 9.676200 -8.413800 0.396000 H 31 XO 0.000000
33 H 7.866300 -2.655100 -1.858700 H 32 XO 0.000000
34 H 9.293700 -3.285200 -2.746000 H 33 XO 0.000000
35 H 9.528100 -2.234700 -1.309900 H 34 XO 0.000000
36 H 3.036400 -1.362500 5.798900 H 35 XO 0.000000

@<TRIPOS>BOND
1 1 2 ar
2 1 3 ar
3 2 4 ar
4 3 8 ar
5 4 9 ar
6 5 6 ar
7 5 10 ar
8 6 11 ar
9 7 10 ar
10 7 12 ar
11 8 9 ar
12 8 13 1
13 9 17 1
14 10 19 1
15 11 12 ar
16 11 20 1
17 12 21 1
18 13 18 1
19 13 19 2
20 14 17 1
21 14 18 2
22 14 22 1
23 15 20 1
24 16 21 1
25 1 23 1
26 2 24 1
27 3 25 1
28 4 26 1
29 5 27 1
30 6 28 1
31 7 29 1
32 15 30 1
33 15 31 1
34 15 32 1
35 16 33 1
36 16 34 1
37 16 35 1
38 17 36 1

@<COSMOlogic>TOTAL_CHARGE
0.0
