# Created by COSMOvis on Mon Aug 09 22:24:21 CEST 2021
#
#

#
#

@<TRIPOS>MOLECULE
SAMPL8-18_micro005_c0
35 37
SMALL
USER_CHARGES

@<TRIPOS>ATOM
1 C 6.298000 1.937300 4.509400 C 0 XO 0.000000
2 C 5.104500 2.123500 5.235200 C 1 XO 0.000000
3 C 6.593600 0.687600 3.973100 C 2 XO 0.000000
4 C 4.221900 1.065800 5.417800 C 3 XO 0.000000
5 C 6.479600 -3.817500 1.404700 C 4 XO 0.000000
6 C 6.879100 -4.962900 0.700600 C 5 XO 0.000000
7 C 8.675700 -3.692600 2.409100 C 6 XO 0.000000
8 C 5.715500 -0.399700 4.147100 C 7 XO 0.000000
9 C 4.509700 -0.210800 4.879800 C 8 XO 0.000000
10 C 7.369300 -3.159600 2.272500 C 9 XO 0.000000
11 C 8.163400 -5.493100 0.850200 C 10 XO 0.000000
12 C 9.073000 -4.842200 1.725300 C 11 XO 0.000000
13 C 5.985700 -1.739700 3.591100 C 12 XO 0.000000
14 C 3.999500 -2.382100 4.554300 C 13 XO 0.000000
15 C 7.740600 -7.279700 -0.696300 C 14 XO 0.000000
16 C 11.265100 -4.792100 2.710000 C 15 XO 0.000000
17 N 3.605300 -1.248600 5.087600 N 16 XO -1.000000
18 N 5.050800 -2.735200 3.851400 N 17 XO 0.000000
19 N 7.092600 -1.945300 2.915000 N 18 XO 0.000000
20 O 8.640800 -6.612600 0.203700 O 19 XO 0.000000
21 O 10.319900 -5.413400 1.821800 O 20 XO 0.000000
22 Cl 2.830300 -3.764000 4.862100 Cl 21 XO 0.000000
23 H 6.987500 2.771700 4.368400 H 22 XO 0.000000
24 H 4.870700 3.103200 5.657100 H 23 XO 0.000000
25 H 7.512800 0.523900 3.408200 H 24 XO 0.000000
26 H 3.294100 1.195200 5.978900 H 25 XO 0.000000
27 H 5.470000 -3.431300 1.270900 H 26 XO 0.000000
28 H 6.169100 -5.442800 0.026800 H 27 XO 0.000000
29 H 9.372700 -3.174300 3.067300 H 28 XO 0.000000
30 H 8.301800 -8.129800 -1.099000 H 29 XO 0.000000
31 H 7.434800 -6.616500 -1.521200 H 30 XO 0.000000
32 H 6.845500 -7.646500 -0.169000 H 31 XO 0.000000
33 H 12.167800 -5.409800 2.657000 H 32 XO 0.000000
34 H 10.888900 -4.775600 3.744900 H 33 XO 0.000000
35 H 11.501300 -3.765800 2.387600 H 34 XO 0.000000

@<TRIPOS>BOND
1 1 2 ar
2 1 3 ar
3 2 4 ar
4 3 8 ar
5 4 9 ar
6 5 6 ar
7 5 10 ar
8 6 11 ar
9 7 10 ar
10 7 12 ar
11 8 9 ar
12 8 13 1
13 9 17 1
14 10 19 1
15 11 12 ar
16 11 20 1
17 12 21 1
18 13 18 1
19 13 19 2
20 14 17 1
21 14 18 2
22 14 22 1
23 15 20 1
24 16 21 1
25 1 23 1
26 2 24 1
27 3 25 1
28 4 26 1
29 5 27 1
30 6 28 1
31 7 29 1
32 15 30 1
33 15 31 1
34 15 32 1
35 16 33 1
36 16 34 1
37 16 35 1

@<COSMOlogic>TOTAL_CHARGE
-1.0
