# Created by COSMOvis on Mon Aug 09 22:24:22 CEST 2021
#
#

#
#

@<TRIPOS>MOLECULE
SAMPL8-21_micro026_c0
39 40
SMALL
USER_CHARGES

@<TRIPOS>ATOM
1 C 0.984200 -0.480700 3.297300 C 0 XO 0.000000
2 O 0.940900 -1.085600 2.000300 O 1 XO 0.000000
3 C 0.293500 -0.384200 0.991700 C 2 XO 0.000000
4 C -0.294400 0.868100 1.177500 C 3 XO 0.000000
5 C -0.926300 1.541700 0.112000 C 4 XO 0.000000
6 C -0.951300 0.911500 -1.137600 C 5 XO 0.000000
7 C -0.355200 -0.341800 -1.330600 C 6 XO 0.000000
8 C 0.326200 -1.057300 -0.291000 C 7 XO 0.000000
9 O 0.925400 -2.193600 -0.467900 O 8 XO -1.000000
10 O -0.365000 -0.865000 -2.632200 O 9 XO 0.000000
11 C -1.067400 -2.120400 -2.748600 C 10 XO 0.000000
12 C -1.619700 2.881700 0.332900 C 11 XO 0.000000
13 C -0.816900 3.892000 1.118200 C 12 XO 0.000000
14 C 0.359000 4.534900 0.526800 C 13 XO 0.000000
15 N 0.830800 4.269400 -0.668700 N 14 XO 0.000000
16 N 1.029100 5.528100 1.253400 N 15 XO 0.000000
17 C 0.648300 5.806200 2.472400 C 16 XO 0.000000
18 N -0.424900 5.190100 3.088400 N 17 XO 0.000000
19 C -1.156600 4.238400 2.399600 C 18 XO 0.000000
20 O -2.209500 3.663700 3.027300 O 19 XO 0.000000
21 C -2.658100 4.189000 4.301100 C 20 XO 0.000000
22 N 1.342500 6.700500 3.243000 N 21 XO 0.000000
23 H -0.028300 -0.323500 3.706300 H 22 XO 0.000000
24 H 1.518700 0.483800 3.278100 H 23 XO 0.000000
25 H 1.528300 -1.183400 3.939200 H 24 XO 0.000000
26 H -0.264600 1.349300 2.156500 H 25 XO 0.000000
27 H -1.439300 1.390400 -1.992400 H 26 XO 0.000000
28 H -2.136400 -1.988900 -2.507700 H 27 XO 0.000000
29 H -0.620700 -2.871400 -2.080700 H 28 XO 0.000000
30 H -0.969100 -2.439000 -3.794700 H 29 XO 0.000000
31 H -2.583200 2.730400 0.845000 H 30 XO 0.000000
32 H -1.864900 3.311500 -0.654200 H 31 XO 0.000000
33 H 0.283100 3.504100 -1.081300 H 32 XO 0.000000
34 H -0.616600 5.376000 4.070300 H 33 XO 0.000000
35 H -2.930200 5.250500 4.217000 H 34 XO 0.000000
36 H -1.899000 4.039200 5.083200 H 35 XO 0.000000
37 H -3.545900 3.601700 4.552300 H 36 XO 0.000000
38 H 1.996200 7.288100 2.731900 H 37 XO 0.000000
39 H 0.851700 7.173700 3.997900 H 38 XO 0.000000

@<TRIPOS>BOND
1 1 2 1
2 2 3 1
3 3 4 ar
4 3 8 ar
5 4 5 ar
6 5 6 ar
7 5 12 1
8 6 7 ar
9 7 8 ar
10 7 10 1
11 8 9 1
12 10 11 1
13 12 13 1
14 13 14 1
15 13 19 2
16 14 15 2
17 14 16 1
18 16 17 2
19 17 18 1
20 17 22 1
21 18 19 1
22 19 20 1
23 20 21 1
24 1 23 1
25 1 24 1
26 1 25 1
27 4 26 1
28 6 27 1
29 11 28 1
30 11 29 1
31 11 30 1
32 12 31 1
33 12 32 1
34 15 33 1
35 18 34 1
36 21 35 1
37 21 36 1
38 21 37 1
39 22 38 1
40 22 39 1

@<COSMOlogic>TOTAL_CHARGE
-1.0
