# Created by COSMOvis on Mon Aug 09 22:24:22 CEST 2021
#
#

#
#

@<TRIPOS>MOLECULE
SAMPL8-1_micro004_c0
29 30
SMALL
USER_CHARGES

@<TRIPOS>ATOM
1 C 1.287300 -1.365500 -0.283000 C 0 XO 0.000000
2 C 0.098600 -0.709400 0.065200 C 1 XO 0.000000
3 C -2.182400 -0.209500 6.481700 C 2 XO 0.000000
4 C 2.019900 -2.006000 0.717400 C 3 XO 0.000000
5 C -2.550000 1.080200 6.078100 C 4 XO 0.000000
6 C -0.334000 -0.681600 1.389800 C 5 XO 0.000000
7 C -1.362000 -1.000100 5.683500 C 6 XO 0.000000
8 C -1.215100 0.786000 4.049200 C 7 XO 0.000000
9 C 1.615000 -2.005600 2.061500 C 8 XO 0.000000
10 C -2.046700 1.564100 4.864300 C 9 XO 0.000000
11 C -0.862800 -0.522200 4.445900 C 10 XO 0.000000
12 C 0.411900 -1.312200 2.412800 C 11 XO 0.000000
13 C 2.471300 -2.762200 3.073200 C 12 XO 0.000000
14 C -2.441300 2.938400 4.393800 C 13 XO 0.000000
15 N -0.008700 -1.356600 3.736500 N 14 XO 0.000000
16 O 1.987100 -2.941200 4.252500 O 15 XO -1.000000
17 O 3.601200 -3.182300 2.698300 O 16 XO 0.000000
18 F -3.531700 2.907000 3.554500 F 17 XO 0.000000
19 F -2.780500 3.770700 5.421400 F 18 XO 0.000000
20 F -1.447500 3.564900 3.694200 F 19 XO 0.000000
21 H 1.628300 -1.386000 -1.319300 H 20 XO 0.000000
22 H -0.506300 -0.221800 -0.702100 H 21 XO 0.000000
23 H -2.551200 -0.604400 7.429500 H 22 XO 0.000000
24 H 2.944400 -2.534000 0.477600 H 23 XO 0.000000
25 H -3.200600 1.693800 6.699700 H 24 XO 0.000000
26 H -1.282400 -0.202700 1.629100 H 25 XO 0.000000
27 H -1.091500 -2.006900 6.007500 H 26 XO 0.000000
28 H -0.807100 1.211700 3.134800 H 27 XO 0.000000
29 H 0.590500 -2.033200 4.271700 H 28 XO 0.000000

@<TRIPOS>BOND
1 1 2 ar
2 1 4 ar
3 2 6 ar
4 3 5 ar
5 3 7 ar
6 4 9 ar
7 5 10 ar
8 6 12 ar
9 7 11 ar
10 8 10 ar
11 8 11 ar
12 9 12 ar
13 9 13 1
14 10 14 1
15 11 15 1
16 12 15 1
17 13 16 1
18 13 17 2
19 14 18 1
20 14 19 1
21 14 20 1
22 1 21 1
23 2 22 1
24 3 23 1
25 4 24 1
26 5 25 1
27 6 26 1
28 7 27 1
29 8 28 1
30 15 29 1

@<COSMOlogic>TOTAL_CHARGE
-1.0
