# Created by COSMOvis on Mon Aug 09 22:24:20 CEST 2021
#
#

#
#

@<TRIPOS>MOLECULE
SAMPL8-14_micro000_c0
43 44
SMALL
USER_CHARGES

@<TRIPOS>ATOM
1 C 2.671100 -0.667000 -0.098100 C 0 XO 0.000000
2 C 1.217200 -0.354300 0.164500 C 1 XO 0.000000
3 C 0.834000 0.844200 0.773700 C 2 XO 0.000000
4 C -0.512600 1.137100 1.020100 C 3 XO 0.000000
5 C -1.476600 0.195300 0.632600 C 4 XO 0.000000
6 C -1.158000 -1.027900 0.015800 C 5 XO 0.000000
7 C 0.216100 -1.279000 -0.211200 C 6 XO 0.000000
8 O 0.581000 -2.462700 -0.820400 O 7 XO 0.000000
9 C -2.257300 -2.033100 -0.389000 C 8 XO 0.000000
10 C -2.047400 -3.376700 0.353300 C 9 XO 0.000000
11 C -2.228300 -2.264400 -1.920400 C 10 XO 0.000000
12 C -3.666900 -1.523300 -0.026700 C 11 XO 0.000000
13 C -0.929000 2.427900 1.718100 C 12 XO 0.000000
14 C -0.281200 3.686400 1.191200 C 13 XO 0.000000
15 C 0.517000 4.518900 1.988200 C 14 XO 0.000000
16 N 1.096800 5.666400 1.626300 N 15 XO 0.000000
17 C 0.905800 6.103200 0.333400 C 16 XO 0.000000
18 N 1.386600 7.200100 -0.183300 N 17 XO 0.000000
19 N 0.123200 5.291200 -0.515800 N 18 XO 0.000000
20 C -0.470500 4.125300 -0.133900 C 19 XO 0.000000
21 N -1.239400 3.474800 -1.034900 N 20 XO 0.000000
22 H 3.311300 0.150000 0.257300 H 21 XO 0.000000
23 H 2.878200 -0.801100 -1.173500 H 22 XO 0.000000
24 H 2.997300 -1.586300 0.417800 H 23 XO 0.000000
25 H 1.608500 1.560900 1.059200 H 24 XO 0.000000
26 H -2.523700 0.428000 0.830800 H 25 XO 0.000000
27 H 1.552800 -2.486900 -0.910500 H 26 XO 0.000000
28 H -2.101800 -3.229200 1.442700 H 27 XO 0.000000
29 H -1.077100 -3.827900 0.112600 H 28 XO 0.000000
30 H -2.839300 -4.086500 0.066900 H 29 XO 0.000000
31 H -3.019700 -2.976000 -2.203300 H 30 XO 0.000000
32 H -1.265000 -2.669500 -2.252400 H 31 XO 0.000000
33 H -2.413000 -1.321200 -2.457100 H 32 XO 0.000000
34 H -3.784100 -1.364300 1.055700 H 33 XO 0.000000
35 H -4.407100 -2.276600 -0.334200 H 34 XO 0.000000
36 H -3.913900 -0.584300 -0.544500 H 35 XO 0.000000
37 H -2.028400 2.512700 1.663900 H 36 XO 0.000000
38 H -0.689400 2.358000 2.792100 H 37 XO 0.000000
39 H 0.692100 4.212600 3.026800 H 38 XO 0.000000
40 H 1.930600 7.675200 0.546500 H 39 XO 0.000000
41 H 0.004600 5.626200 -1.472400 H 40 XO 0.000000
42 H -1.484200 2.505800 -0.843900 H 41 XO 0.000000
43 H -1.228200 3.746600 -2.014500 H 42 XO 0.000000

@<TRIPOS>BOND
1 1 2 1
2 2 3 ar
3 2 7 ar
4 3 4 ar
5 4 5 ar
6 4 13 1
7 5 6 ar
8 6 7 ar
9 6 9 1
10 7 8 1
11 9 10 1
12 9 11 1
13 9 12 1
14 13 14 1
15 14 15 1
16 14 20 2
17 15 16 2
18 16 17 1
19 17 18 2
20 17 19 1
21 19 20 1
22 20 21 1
23 1 22 1
24 1 23 1
25 1 24 1
26 3 25 1
27 5 26 1
28 8 27 1
29 10 28 1
30 10 29 1
31 10 30 1
32 11 31 1
33 11 32 1
34 11 33 1
35 12 34 1
36 12 35 1
37 12 36 1
38 13 37 1
39 13 38 1
40 15 39 1
41 18 40 1
42 19 41 1
43 21 42 1
44 21 43 1

@<COSMOlogic>TOTAL_CHARGE
0.0
