# Created by COSMOvis on Mon Aug 09 22:24:22 CEST 2021
#
#

#
#

@<TRIPOS>MOLECULE
SAMPL8-1_extra002_c0
31 32
SMALL
USER_CHARGES

@<TRIPOS>ATOM
1 C -2.668900 2.147800 -1.798000 C 0 XO 0.000000
2 C -1.427100 2.006500 -1.170100 C 1 XO 0.000000
3 C -1.289500 1.159700 -0.065700 C 2 XO 0.000000
4 C -2.400600 0.467500 0.396200 C 3 XO 0.000000
5 C -3.664800 0.592600 -0.213100 C 4 XO 0.000000
6 C -3.777900 1.448300 -1.324500 C 5 XO 0.000000
7 C -4.841200 -0.156300 0.300800 C 6 XO 0.000000
8 O -4.790700 -0.940300 1.261400 O 7 XO 0.000000
9 O -5.971300 0.084000 -0.365000 O 8 XO 0.000000
10 N -2.255000 -0.419800 1.580000 N 9 XO 1.000000
11 C -1.246100 -1.494600 1.450800 C 10 XO 0.000000
12 C -1.331200 -2.382500 0.378900 C 11 XO 0.000000
13 C -0.390700 -3.409500 0.284700 C 12 XO 0.000000
14 C 0.613500 -3.541300 1.248100 C 13 XO 0.000000
15 C 0.670800 -2.640300 2.316800 C 14 XO 0.000000
16 C -0.261400 -1.600600 2.425700 C 15 XO 0.000000
17 C 1.776400 -2.745400 3.338300 C 16 XO 0.000000
18 F 1.381300 -2.319200 4.571900 F 17 XO 0.000000
19 F 2.231700 -4.020300 3.480900 F 18 XO 0.000000
20 F 2.860600 -1.981100 2.992800 F 19 XO 0.000000
21 H -2.774000 2.806900 -2.659800 H 20 XO 0.000000
22 H -0.559000 2.554900 -1.536200 H 21 XO 0.000000
23 H -0.323400 1.042300 0.426400 H 22 XO 0.000000
24 H -4.744900 1.559400 -1.812300 H 23 XO 0.000000
25 H -6.694400 -0.447200 0.036200 H 24 XO 0.000000
26 H -3.235400 -0.828200 1.738300 H 25 XO 0.000000
27 H -2.044600 0.151200 2.412500 H 26 XO 0.000000
28 H -2.112200 -2.280400 -0.375300 H 27 XO 0.000000
29 H -0.443500 -4.113500 -0.545300 H 28 XO 0.000000
30 H 1.342000 -4.347400 1.166500 H 29 XO 0.000000
31 H -0.224000 -0.898300 3.258900 H 30 XO 0.000000

@<TRIPOS>BOND
1 1 2 ar
2 1 6 ar
3 2 3 ar
4 3 4 ar
5 4 5 ar
6 4 10 1
7 5 6 ar
8 5 7 1
9 7 8 2
10 7 9 1
11 10 11 1
12 11 12 ar
13 11 16 ar
14 12 13 ar
15 13 14 ar
16 14 15 ar
17 15 16 ar
18 15 17 1
19 17 18 1
20 17 19 1
21 17 20 1
22 1 21 1
23 2 22 1
24 3 23 1
25 6 24 1
26 9 25 1
27 10 26 1
28 10 27 1
29 12 28 1
30 13 29 1
31 14 30 1
32 16 31 1

@<COSMOlogic>TOTAL_CHARGE
1.0
