# Created by COSMOvis on Mon Aug 09 22:24:21 CEST 2021
#
#

#
#

@<TRIPOS>MOLECULE
SAMPL8-15_micro001_c0
31 33
SMALL
USER_CHARGES

@<TRIPOS>ATOM
1 C 3.552500 -0.264500 -1.807600 C 0 XO 0.000000
2 C -4.495500 0.414300 0.873900 C 1 XO 0.000000
3 C 4.653500 -0.072400 -0.945000 C 2 XO 0.000000
4 C -3.569200 1.253600 1.501100 C 3 XO 0.000000
5 C 2.258500 -0.157100 -1.321900 C 4 XO 0.000000
6 C -4.049900 -0.532600 -0.053500 C 5 XO 0.000000
7 C 4.454800 0.228500 0.392200 C 6 XO 0.000000
8 C -2.209200 1.146100 1.202400 C 7 XO 0.000000
9 C 2.027400 0.140300 0.040800 C 8 XO 0.000000
10 C -2.690700 -0.671900 -0.369100 C 9 XO 0.000000
11 C 3.143000 0.341400 0.909300 C 10 XO 0.000000
12 C -1.767300 0.182800 0.281100 C 11 XO 0.000000
13 C 0.719200 0.264000 0.656200 C 12 XO 0.000000
14 C 1.734400 0.723300 2.634900 C 13 XO 0.000000
15 C -2.232200 -1.707800 -1.364500 C 14 XO 0.000000
16 N 2.979000 0.648200 2.248200 N 15 XO 0.000000
17 N 0.595200 0.555200 1.959700 N 16 XO 0.000000
18 N -0.401700 0.066100 -0.087800 N 17 XO 0.000000
19 Cl 1.492900 1.113200 4.367100 Cl 18 XO 0.000000
20 H 3.719500 -0.494000 -2.860600 H 19 XO 0.000000
21 H -5.559200 0.495800 1.103500 H 20 XO 0.000000
22 H 5.668000 -0.158700 -1.337300 H 21 XO 0.000000
23 H -3.902000 2.004200 2.220000 H 22 XO 0.000000
24 H 1.429000 -0.299900 -2.016900 H 23 XO 0.000000
25 H -4.770200 -1.188900 -0.547200 H 24 XO 0.000000
26 H 5.294500 0.384600 1.070800 H 25 XO 0.000000
27 H -1.487000 1.800100 1.685100 H 26 XO 0.000000
28 H -3.083800 -2.297900 -1.724500 H 27 XO 0.000000
29 H -1.500900 -2.402100 -0.921700 H 28 XO 0.000000
30 H -1.757500 -1.252400 -2.250300 H 29 XO 0.000000
31 H -0.245300 -0.261600 -1.038400 H 30 XO 0.000000

@<TRIPOS>BOND
1 1 3 ar
2 1 5 ar
3 2 4 ar
4 2 6 ar
5 3 7 ar
6 4 8 ar
7 5 9 ar
8 6 10 ar
9 7 11 ar
10 8 12 ar
11 9 11 ar
12 9 13 ar
13 10 12 ar
14 10 15 1
15 11 16 ar
16 12 18 1
17 13 17 ar
18 13 18 1
19 14 16 ar
20 14 17 ar
21 14 19 1
22 1 20 1
23 2 21 1
24 3 22 1
25 4 23 1
26 5 24 1
27 6 25 1
28 7 26 1
29 8 27 1
30 15 28 1
31 15 29 1
32 15 30 1
33 18 31 1

@<COSMOlogic>TOTAL_CHARGE
0.0
