# Created by COSMOvis on Mon Aug 09 22:24:23 CEST 2021
#
#

#
#

@<TRIPOS>MOLECULE
SAMPL8-9_micro004_c0
38 40
SMALL
USER_CHARGES

@<TRIPOS>ATOM
1 C 1.342500 8.766500 -0.158300 C 0 XO 0.000000
2 C 0.426300 9.387100 -1.005900 C 1 XO 0.000000
3 C 0.276400 7.393400 -2.454200 C 2 XO 0.000000
4 C 1.732600 7.454000 -0.455100 C 3 XO 0.000000
5 C 1.194900 6.789900 -1.589800 C 4 XO 0.000000
6 C -0.082900 8.698400 -2.125300 C 5 XO 0.000000
7 C 2.609400 5.520200 -0.501200 C 6 XO 0.000000
8 C -1.686900 1.528200 -2.132300 C 7 XO 0.000000
9 C -0.385700 1.094200 -2.822200 C 8 XO 0.000000
10 C -1.397700 2.451500 -0.940900 C 9 XO 0.000000
11 C 0.455100 2.307600 -3.247100 C 10 XO 0.000000
12 C -0.549500 3.664900 -1.357800 C 11 XO 0.000000
13 C 0.749400 3.251500 -2.066000 C 12 XO 0.000000
14 C 1.563800 4.452300 -2.581000 C 13 XO 0.000000
15 N 2.623400 6.616100 0.212500 N 14 XO 0.000000
16 N 1.781300 5.525100 -1.597000 N 15 XO 0.000000
17 N 3.387400 4.343200 -0.181900 N 16 XO 1.000000
18 O 1.649500 2.566600 -1.120700 O 17 XO 0.000000
19 Br -1.344100 9.613200 -3.261300 Br 18 XO 0.000000
20 H 1.745200 9.290700 0.708800 H 19 XO 0.000000
21 H 0.103100 10.407700 -0.804700 H 20 XO 0.000000
22 H -0.133600 6.889900 -3.328400 H 21 XO 0.000000
23 H -2.323500 2.063400 -2.858500 H 22 XO 0.000000
24 H -2.255100 0.646200 -1.799300 H 23 XO 0.000000
25 H 0.200900 0.455100 -2.139900 H 24 XO 0.000000
26 H -0.603700 0.478500 -3.707600 H 25 XO 0.000000
27 H -2.333300 2.809000 -0.486100 H 26 XO 0.000000
28 H -0.883200 1.880200 -0.145600 H 27 XO 0.000000
29 H 1.407400 1.987600 -3.697700 H 28 XO 0.000000
30 H -0.094000 2.879200 -4.013800 H 29 XO 0.000000
31 H -1.131800 4.287700 -2.056700 H 30 XO 0.000000
32 H -0.315100 4.291100 -0.483700 H 31 XO 0.000000
33 H 1.045600 4.903300 -3.434300 H 32 XO 0.000000
34 H 2.540600 4.104300 -2.946000 H 33 XO 0.000000
35 H 4.288600 4.315100 -0.683000 H 34 XO 0.000000
36 H 3.599100 4.326600 0.825900 H 35 XO 0.000000
37 H 1.125000 1.996400 -0.526800 H 36 XO 0.000000
38 H 2.807500 3.471000 -0.434800 H 37 XO 0.000000

@<TRIPOS>BOND
1 1 2 ar
2 1 4 ar
3 2 6 ar
4 3 5 ar
5 3 6 ar
6 4 5 ar
7 4 15 ar
8 5 16 ar
9 6 19 1
10 7 15 ar
11 7 16 ar
12 7 17 1
13 8 9 1
14 8 10 1
15 9 11 1
16 10 12 1
17 11 13 1
18 12 13 1
19 13 14 1
20 13 18 1
21 14 16 1
22 1 20 1
23 2 21 1
24 3 22 1
25 8 23 1
26 8 24 1
27 9 25 1
28 9 26 1
29 10 27 1
30 10 28 1
31 11 29 1
32 11 30 1
33 12 31 1
34 12 32 1
35 14 33 1
36 14 34 1
37 17 35 1
38 17 36 1
39 17 38 1
40 18 37 1

@<COSMOlogic>TOTAL_CHARGE
1.0
