# Created by COSMOvis on Mon Aug 09 22:24:22 CEST 2021
#
#

#
#

@<TRIPOS>MOLECULE
SAMPL8-21_micro008_c0
40 41
SMALL
USER_CHARGES

@<TRIPOS>ATOM
1 C 3.200400 -1.705100 1.813400 C 0 XO 0.000000
2 O 2.269700 -1.787200 0.718300 O 1 XO 0.000000
3 C 1.285100 -0.832000 0.654100 C 2 XO 0.000000
4 C 1.122700 0.218600 1.572200 C 3 XO 0.000000
5 C 0.089900 1.154900 1.415800 C 4 XO 0.000000
6 C -0.794900 1.038000 0.334100 C 5 XO 0.000000
7 C -0.636600 -0.009100 -0.580800 C 6 XO 0.000000
8 C 0.397200 -0.951600 -0.429200 C 7 XO 0.000000
9 O 0.557900 -1.975500 -1.333300 O 8 XO 0.000000
10 O -1.426100 -0.239400 -1.686100 O 9 XO 0.000000
11 C -2.520200 0.663300 -1.930700 C 10 XO 0.000000
12 C -0.096800 2.250900 2.462500 C 11 XO 0.000000
13 C -0.550000 3.583700 1.923900 C 12 XO 0.000000
14 C 0.360300 4.420200 1.138500 C 13 XO 0.000000
15 N 1.586800 4.087400 0.812400 N 14 XO 0.000000
16 N -0.076500 5.679300 0.708500 N 15 XO 0.000000
17 C -1.295000 6.069300 0.976100 C 16 XO 0.000000
18 N -2.190800 5.307700 1.705400 N 17 XO 0.000000
19 C -1.809400 4.064700 2.174700 C 18 XO 0.000000
20 O -2.705200 3.343400 2.885100 O 19 XO 0.000000
21 C -3.980000 3.933600 3.242800 C 20 XO 0.000000
22 N -1.778700 7.253300 0.492600 N 21 XO 0.000000
23 H 3.766400 -0.761400 1.785000 H 22 XO 0.000000
24 H 3.885500 -2.548500 1.678600 H 23 XO 0.000000
25 H 2.684800 -1.799600 2.781600 H 24 XO 0.000000
26 H 1.808200 0.317800 2.413400 H 25 XO 0.000000
27 H -1.590100 1.771300 0.205700 H 26 XO 0.000000
28 H -0.150300 -1.876100 -2.003600 H 27 XO 0.000000
29 H -2.155000 1.688600 -2.093400 H 28 XO 0.000000
30 H -3.236100 0.648300 -1.094900 H 29 XO 0.000000
31 H -3.007700 0.297700 -2.840000 H 30 XO 0.000000
32 H 0.857900 2.382800 3.000300 H 31 XO 0.000000
33 H -0.822100 1.906100 3.215300 H 32 XO 0.000000
34 H 1.787200 3.141000 1.157400 H 33 XO 0.000000
35 H -3.150300 5.627700 1.816900 H 34 XO 0.000000
36 H -4.584900 4.141700 2.348000 H 35 XO 0.000000
37 H -3.838400 4.843000 3.843500 H 36 XO 0.000000
38 H -4.484300 3.172600 3.844700 H 37 XO 0.000000
39 H -2.556200 7.698500 0.973700 H 38 XO 0.000000
40 H -1.074900 7.894600 0.136100 H 39 XO 0.000000

@<TRIPOS>BOND
1 1 2 1
2 2 3 1
3 3 4 ar
4 3 8 ar
5 4 5 ar
6 5 6 ar
7 5 12 1
8 6 7 ar
9 7 8 ar
10 7 10 1
11 8 9 1
12 10 11 1
13 12 13 1
14 13 14 1
15 13 19 2
16 14 15 2
17 14 16 1
18 16 17 2
19 17 18 1
20 17 22 1
21 18 19 1
22 19 20 1
23 20 21 1
24 1 23 1
25 1 24 1
26 1 25 1
27 4 26 1
28 6 27 1
29 9 28 1
30 11 29 1
31 11 30 1
32 11 31 1
33 12 32 1
34 12 33 1
35 15 34 1
36 18 35 1
37 21 36 1
38 21 37 1
39 21 38 1
40 22 39 1
41 22 40 1

@<COSMOlogic>TOTAL_CHARGE
0.0
