# Created by COSMOvis on Mon Aug 09 22:24:21 CEST 2021
#
#

#
#

@<TRIPOS>MOLECULE
SAMPL8-19_micro000_c0
46 49
SMALL
USER_CHARGES

@<TRIPOS>ATOM
1 C 0.818300 -4.210700 1.156100 C 0 XO 0.000000
2 N 1.416400 -3.469900 0.055700 N 1 XO 0.000000
3 C 2.178200 -2.301500 0.154200 C 2 XO 0.000000
4 C 2.558100 -1.526400 1.248400 C 3 XO 0.000000
5 C 3.332500 -0.382500 0.990900 C 4 XO 0.000000
6 C 3.711000 -0.033800 -0.314600 C 5 XO 0.000000
7 C 3.330500 -0.816300 -1.417500 C 6 XO 0.000000
8 C 2.563400 -1.949400 -1.160300 C 7 XO 0.000000
9 N 2.033000 -2.923600 -1.998800 N 8 XO 0.000000
10 C 1.324700 -3.855900 -1.270300 C 9 XO 0.000000
11 C 0.662400 -4.979300 -1.744300 C 10 XO 0.000000
12 S 0.457100 -5.234500 -3.473200 S 11 XO 0.000000
13 C 1.734100 -6.446600 -3.873200 C 12 XO 0.000000
14 N 2.525000 -6.891900 -2.868700 N 13 XO 0.000000
15 C 3.547500 -7.849100 -3.035500 C 14 XO 0.000000
16 O 4.217700 -8.224700 -2.060300 O 15 XO 0.000000
17 C 3.679900 -8.299600 -4.407500 C 16 XO 0.000000
18 C 2.816900 -7.790400 -5.353500 C 17 XO 0.000000
19 N 1.835000 -6.863200 -5.117200 N 18 XO 0.000000
20 C 4.747200 -9.314400 -4.738400 C 19 XO 0.000000
21 C 6.152900 -8.754700 -4.650600 C 20 XO 0.000000
22 C 7.079800 -9.196800 -3.705600 C 21 XO 0.000000
23 N 8.333100 -8.711800 -3.617000 N 22 XO 0.000000
24 C 8.651700 -7.761200 -4.502700 C 23 XO 0.000000
25 N 7.859200 -7.250700 -5.463800 N 24 XO 0.000000
26 C 6.620200 -7.756900 -5.519200 C 25 XO 0.000000
27 O 9.889000 -7.218000 -4.481900 O 26 XO 0.000000
28 C 10.818100 -7.711800 -3.484300 C 27 XO 0.000000
29 H 1.252300 -5.218500 1.225500 H 28 XO 0.000000
30 H -0.269200 -4.291300 1.019100 H 29 XO 0.000000
31 H 1.014800 -3.676400 2.090600 H 30 XO 0.000000
32 H 2.269100 -1.788500 2.266400 H 31 XO 0.000000
33 H 3.643900 0.244600 1.827500 H 32 XO 0.000000
34 H 4.311900 0.861400 -0.480500 H 33 XO 0.000000
35 H 3.623300 -0.549000 -2.433300 H 34 XO 0.000000
36 H 2.094900 -2.942700 -3.012700 H 35 XO 0.000000
37 H 0.066800 -5.586500 -1.066700 H 36 XO 0.000000
38 H 2.344000 -6.504800 -1.928500 H 37 XO 0.000000
39 H 2.887900 -8.132600 -6.389900 H 38 XO 0.000000
40 H 4.566000 -9.700200 -5.753200 H 39 XO 0.000000
41 H 4.667800 -10.169100 -4.049200 H 40 XO 0.000000
42 H 6.812800 -9.975200 -2.985200 H 41 XO 0.000000
43 H 5.971000 -7.345800 -6.298600 H 42 XO 0.000000
44 H 10.999100 -8.785800 -3.621400 H 43 XO 0.000000
45 H 10.434300 -7.528500 -2.472500 H 44 XO 0.000000
46 H 11.738100 -7.143800 -3.653200 H 45 XO 0.000000

@<TRIPOS>BOND
1 1 2 1
2 2 3 1
3 2 10 1
4 3 4 ar
5 3 8 ar
6 4 5 ar
7 5 6 ar
8 6 7 ar
9 7 8 ar
10 8 9 1
11 9 10 1
12 10 11 2
13 11 12 1
14 12 13 1
15 13 14 1
16 13 19 2
17 14 15 1
18 15 16 2
19 15 17 1
20 17 18 2
21 17 20 1
22 18 19 1
23 20 21 1
24 21 22 ar
25 21 26 ar
26 22 23 ar
27 23 24 ar
28 24 25 ar
29 24 27 1
30 25 26 ar
31 27 28 1
32 1 29 1
33 1 30 1
34 1 31 1
35 4 32 1
36 5 33 1
37 6 34 1
38 7 35 1
39 9 36 1
40 11 37 1
41 14 38 1
42 18 39 1
43 20 40 1
44 20 41 1
45 22 42 1
46 26 43 1
47 28 44 1
48 28 45 1
49 28 46 1

@<COSMOlogic>TOTAL_CHARGE
0.0
