# Created by COSMOvis on Mon Aug 09 22:24:21 CEST 2021
#
#

#
#

@<TRIPOS>MOLECULE
SAMPL8-14_micro027_c0
42 43
SMALL
USER_CHARGES

@<TRIPOS>ATOM
1 C -1.417800 -3.883100 -0.470500 C 0 XO 0.000000
2 C -1.156800 -2.400100 -0.539800 C 1 XO 0.000000
3 C 0.052900 -1.901500 -1.029800 C 2 XO 0.000000
4 C 0.311600 -0.523200 -1.108600 C 3 XO 0.000000
5 C -0.701100 0.348300 -0.669300 C 4 XO 0.000000
6 C -1.936000 -0.085400 -0.167600 C 5 XO 0.000000
7 C -2.203200 -1.512200 -0.082500 C 6 XO 0.000000
8 O -3.317400 -2.006500 0.371500 O 7 XO -1.000000
9 C -3.004600 0.922900 0.297600 C 8 XO 0.000000
10 C -3.317500 0.688500 1.795900 C 9 XO 0.000000
11 C -4.297800 0.730500 -0.531800 C 10 XO 0.000000
12 C -2.560200 2.389300 0.138100 C 11 XO 0.000000
13 C 1.641200 0.005600 -1.601600 C 12 XO 0.000000
14 C 2.678600 0.256900 -0.523200 C 13 XO 0.000000
15 C 2.443600 0.026400 0.795400 C 14 XO 0.000000
16 N 3.382600 0.254500 1.775600 N 15 XO 0.000000
17 C 4.652100 0.742200 1.517500 C 16 XO 0.000000
18 N 5.486100 0.935700 2.490800 N 17 XO 0.000000
19 N 4.882700 0.975700 0.166600 N 18 XO 0.000000
20 C 3.988700 0.773300 -0.905700 C 19 XO 0.000000
21 N 4.301800 1.027000 -2.140900 N 20 XO 0.000000
22 H -2.308700 -4.165700 -1.057000 H 21 XO 0.000000
23 H -1.629500 -4.208400 0.562400 H 22 XO 0.000000
24 H -0.558300 -4.458300 -0.845900 H 23 XO 0.000000
25 H 0.820700 -2.610000 -1.364800 H 24 XO 0.000000
26 H -0.499200 1.421100 -0.726100 H 25 XO 0.000000
27 H -2.424100 0.882800 2.410300 H 26 XO 0.000000
28 H -3.635700 -0.351000 1.950000 H 27 XO 0.000000
29 H -4.118300 1.366700 2.135500 H 28 XO 0.000000
30 H -4.641900 -0.308700 -0.446100 H 29 XO 0.000000
31 H -4.113000 0.958200 -1.593700 H 30 XO 0.000000
32 H -5.092300 1.406000 -0.172900 H 31 XO 0.000000
33 H -2.349400 2.645800 -0.911800 H 32 XO 0.000000
34 H -1.661300 2.614400 0.732400 H 33 XO 0.000000
35 H -3.366900 3.052800 0.487600 H 34 XO 0.000000
36 H 2.078100 -0.692600 -2.337000 H 35 XO 0.000000
37 H 1.496600 0.949400 -2.156800 H 36 XO 0.000000
38 H 1.485600 -0.353600 1.146500 H 37 XO 0.000000
39 H 3.159000 0.067200 2.749600 H 38 XO 0.000000
40 H 6.377800 1.297900 2.137100 H 39 XO 0.000000
41 H 5.806500 1.336600 -0.069100 H 40 XO 0.000000
42 H 5.264700 1.384500 -2.208100 H 41 XO 0.000000

@<TRIPOS>BOND
1 1 2 1
2 2 3 ar
3 2 7 ar
4 3 4 ar
5 4 5 ar
6 4 13 1
7 5 6 ar
8 6 7 ar
9 6 9 1
10 7 8 1
11 9 10 1
12 9 11 1
13 9 12 1
14 13 14 1
15 14 15 ar
16 14 20 ar
17 15 16 ar
18 16 17 ar
19 17 18 2
20 17 19 ar
21 19 20 ar
22 20 21 2
23 1 22 1
24 1 23 1
25 1 24 1
26 3 25 1
27 5 26 1
28 10 27 1
29 10 28 1
30 10 29 1
31 11 30 1
32 11 31 1
33 11 32 1
34 12 33 1
35 12 34 1
36 12 35 1
37 13 36 1
38 13 37 1
39 15 38 1
40 16 39 1
41 18 40 1
42 19 41 1
43 21 42 1

@<COSMOlogic>TOTAL_CHARGE
-1.0
