# Created by COSMOvis on Mon Aug 09 22:24:21 CEST 2021
#
#

#
#

@<TRIPOS>MOLECULE
SAMPL8-17_micro000_c0
38 40
SMALL
USER_CHARGES

@<TRIPOS>ATOM
1 C -1.736100 2.019100 -4.287800 C 0 XO 0.000000
2 C -0.609600 1.336900 -4.766200 C 1 XO 0.000000
3 C -0.183000 0.354800 -2.545700 C 2 XO 0.000000
4 C -2.093800 1.870500 -2.942800 C 3 XO 0.000000
5 C -1.301700 1.051400 -2.089200 C 4 XO 0.000000
6 C 0.132600 0.523400 -3.898600 C 5 XO 0.000000
7 C -3.040500 1.923000 -1.006800 C 6 XO 0.000000
8 C -0.447800 -0.043000 2.536000 C 7 XO 0.000000
9 C 0.765700 1.244700 0.756700 C 8 XO 0.000000
10 C 0.698800 0.324300 3.478400 C 9 XO 0.000000
11 C 1.846100 1.538400 1.800900 C 10 XO 0.000000
12 C -0.624300 0.978400 1.383100 C 11 XO 0.000000
13 C -1.583400 0.322600 0.349300 C 12 XO 0.000000
14 C -1.202300 2.305200 1.898500 C 13 XO 0.000000
15 N -3.164800 2.407100 -2.241800 N 14 XO 0.000000
16 N -1.917700 1.113100 -0.838400 N 15 XO 0.000000
17 N -3.946900 2.098900 -0.004300 N 16 XO 0.000000
18 O 1.946500 0.483300 2.775100 O 17 XO 0.000000
19 O -2.507500 2.079500 2.483100 O 18 XO 0.000000
20 Br 1.672300 -0.417100 -4.601400 Br 19 XO 0.000000
21 H -2.327300 2.645500 -4.957900 H 20 XO 0.000000
22 H -0.315200 1.435400 -5.810700 H 21 XO 0.000000
23 H 0.414500 -0.287300 -1.900600 H 22 XO 0.000000
24 H -0.239900 -1.036000 2.104400 H 23 XO 0.000000
25 H -1.381100 -0.125600 3.113500 H 24 XO 0.000000
26 H 0.720300 2.078300 0.036900 H 25 XO 0.000000
27 H 1.075000 0.347200 0.197900 H 26 XO 0.000000
28 H 0.474600 1.254400 4.035400 H 27 XO 0.000000
29 H 0.863300 -0.475900 4.212000 H 28 XO 0.000000
30 H 2.831500 1.604000 1.320500 H 29 XO 0.000000
31 H 1.656800 2.497800 2.318900 H 30 XO 0.000000
32 H -2.528400 0.056500 0.845500 H 31 XO 0.000000
33 H -1.132600 -0.617400 -0.000000 H 32 XO 0.000000
34 H -1.281800 3.023500 1.062700 H 33 XO 0.000000
35 H -0.536600 2.749000 2.652600 H 34 XO 0.000000
36 H -4.642700 2.816600 -0.194400 H 35 XO 0.000000
37 H -3.597200 2.088800 0.967500 H 36 XO 0.000000
38 H -2.734200 2.864600 3.013700 H 37 XO 0.000000

@<TRIPOS>BOND
1 1 2 ar
2 1 4 ar
3 2 6 ar
4 3 5 ar
5 3 6 ar
6 4 5 ar
7 4 15 ar
8 5 16 ar
9 6 20 1
10 7 15 ar
11 7 16 ar
12 7 17 1
13 8 10 1
14 8 12 1
15 9 11 1
16 9 12 1
17 10 18 1
18 11 18 1
19 12 13 1
20 12 14 1
21 13 16 1
22 14 19 1
23 1 21 1
24 2 22 1
25 3 23 1
26 8 24 1
27 8 25 1
28 9 26 1
29 9 27 1
30 10 28 1
31 10 29 1
32 11 30 1
33 11 31 1
34 13 32 1
35 13 33 1
36 14 34 1
37 14 35 1
38 17 36 1
39 17 37 1
40 19 38 1

@<COSMOlogic>TOTAL_CHARGE
0.0
