# Created by COSMOvis on Mon Aug 09 22:24:21 CEST 2021
#
#

#
#

@<TRIPOS>MOLECULE
SAMPL8-14_micro032_c0
42 43
SMALL
USER_CHARGES

@<TRIPOS>ATOM
1 C -0.711600 -3.571700 -0.748100 C 0 XO 0.000000
2 C -0.769500 -2.067600 -0.662800 C 1 XO 0.000000
3 C 0.325500 -1.281800 -1.026600 C 2 XO 0.000000
4 C 0.288700 0.120400 -0.952800 C 3 XO 0.000000
5 C -0.900200 0.711100 -0.492300 C 4 XO 0.000000
6 C -2.035000 -0.019300 -0.108700 C 5 XO 0.000000
7 C -1.998900 -1.469700 -0.185100 C 6 XO 0.000000
8 O -2.998400 -2.230900 0.151000 O 7 XO -1.000000
9 C -3.304900 0.690900 0.398700 C 8 XO 0.000000
10 C -3.610300 0.230900 1.845500 C 9 XO 0.000000
11 C -4.502300 0.333100 -0.515400 C 10 XO 0.000000
12 C -3.171300 2.225700 0.415000 C 11 XO 0.000000
13 C 1.474800 0.974700 -1.382200 C 12 XO 0.000000
14 C 2.783400 0.652300 -0.700800 C 13 XO 0.000000
15 C 3.882700 0.207900 -1.395200 C 14 XO 0.000000
16 N 5.118700 -0.077900 -0.868900 N 15 XO 0.000000
17 C 5.243700 0.108400 0.437700 C 16 XO 0.000000
18 N 4.213300 0.556400 1.216300 N 17 XO 0.000000
19 C 2.923600 0.847800 0.732300 C 18 XO 0.000000
20 N 2.045800 1.256100 1.604100 N 19 XO 0.000000
21 N 6.416500 -0.198800 1.062400 N 20 XO 0.000000
22 H -0.888200 -4.039500 0.235400 H 21 XO 0.000000
23 H -1.499300 -3.969800 -1.410000 H 22 XO 0.000000
24 H 0.264100 -3.913300 -1.124300 H 23 XO 0.000000
25 H 1.239100 -1.777000 -1.377500 H 24 XO 0.000000
26 H -0.929500 1.803300 -0.437500 H 25 XO 0.000000
27 H -4.547000 0.686800 2.207400 H 26 XO 0.000000
28 H -2.799000 0.535300 2.525800 H 27 XO 0.000000
29 H -3.706500 -0.862500 1.874100 H 28 XO 0.000000
30 H -4.625200 -0.757300 -0.556100 H 29 XO 0.000000
31 H -4.335300 0.710900 -1.536900 H 30 XO 0.000000
32 H -5.431000 0.788100 -0.132500 H 31 XO 0.000000
33 H -2.984800 2.635500 -0.590100 H 32 XO 0.000000
34 H -4.109700 2.667300 0.785500 H 33 XO 0.000000
35 H -2.359600 2.561900 1.078400 H 34 XO 0.000000
36 H 1.220900 2.034300 -1.197300 H 35 XO 0.000000
37 H 1.641300 0.890700 -2.470600 H 36 XO 0.000000
38 H 3.805100 0.063700 -2.477600 H 37 XO 0.000000
39 H 4.350100 0.678800 2.220700 H 38 XO 0.000000
40 H 1.142700 1.378300 1.131100 H 39 XO 0.000000
41 H 6.615500 0.202800 1.974600 H 40 XO 0.000000
42 H 7.222200 -0.315900 0.453900 H 41 XO 0.000000

@<TRIPOS>BOND
1 1 2 1
2 2 3 ar
3 2 7 ar
4 3 4 ar
5 4 5 ar
6 4 13 1
7 5 6 ar
8 6 7 ar
9 6 9 1
10 7 8 1
11 9 10 1
12 9 11 1
13 9 12 1
14 13 14 1
15 14 15 2
16 14 19 1
17 15 16 1
18 16 17 2
19 17 18 1
20 17 21 1
21 18 19 1
22 19 20 2
23 1 22 1
24 1 23 1
25 1 24 1
26 3 25 1
27 5 26 1
28 10 27 1
29 10 28 1
30 10 29 1
31 11 30 1
32 11 31 1
33 11 32 1
34 12 33 1
35 12 34 1
36 12 35 1
37 13 36 1
38 13 37 1
39 15 38 1
40 18 39 1
41 20 40 1
42 21 41 1
43 21 42 1

@<COSMOlogic>TOTAL_CHARGE
-1.0
