# Created by COSMOvis on Mon Aug 09 22:24:23 CEST 2021
#
#

#
#

@<TRIPOS>MOLECULE
SAMPL8-2_micro000_c0
27 27
SMALL
USER_CHARGES

@<TRIPOS>ATOM
1 C 2.820900 -1.575600 1.967900 C 0 XO 0.000000
2 C 1.968000 -1.009400 -0.224000 C 1 XO 0.000000
3 C 1.745700 -0.918400 2.568500 C 2 XO 0.000000
4 C 0.883200 -0.348400 0.357200 C 3 XO 0.000000
5 C 2.948500 -1.630000 0.568700 C 4 XO 0.000000
6 C 0.787400 -0.312600 1.750600 C 5 XO 0.000000
7 C 6.551800 -1.982000 -0.819800 C 6 XO 0.000000
8 C -1.875800 -0.726800 2.777900 C 7 XO 0.000000
9 C 4.139600 -2.310000 -0.067800 C 8 XO 0.000000
10 C 5.329300 -1.346400 -0.199100 C 9 XO 0.000000
11 O 6.651200 -3.145000 -1.183100 O 10 XO 0.000000
12 O -0.167400 1.049400 3.867200 O 11 XO 0.000000
13 O -1.149200 1.546500 1.532200 O 12 XO 0.000000
14 O 7.569100 -1.089300 -0.934600 O 13 XO 0.000000
15 S -0.612300 0.548400 2.520800 S 14 XO 0.000000
16 H 3.572400 -2.054100 2.599400 H 15 XO 0.000000
17 H 2.050300 -1.043500 -1.312300 H 16 XO 0.000000
18 H 1.660100 -0.873100 3.654700 H 17 XO 0.000000
19 H 0.129500 0.136100 -0.264300 H 18 XO 0.000000
20 H -1.462100 -1.491500 3.444400 H 19 XO 0.000000
21 H -2.732000 -0.219400 3.238400 H 20 XO 0.000000
22 H -2.141600 -1.145700 1.801100 H 21 XO 0.000000
23 H 4.441100 -3.177000 0.537900 H 22 XO 0.000000
24 H 3.865100 -2.687200 -1.063200 H 23 XO 0.000000
25 H 5.061400 -0.468400 -0.808600 H 24 XO 0.000000
26 H 5.625100 -0.947800 0.784700 H 25 XO 0.000000
27 H 8.335500 -1.551800 -1.338500 H 26 XO 0.000000

@<TRIPOS>BOND
1 1 3 ar
2 1 5 ar
3 2 4 ar
4 2 5 ar
5 3 6 ar
6 4 6 ar
7 5 9 1
8 6 15 1
9 7 10 1
10 7 11 2
11 7 14 1
12 8 15 1
13 9 10 1
14 12 15 2
15 13 15 2
16 1 16 1
17 2 17 1
18 3 18 1
19 4 19 1
20 8 20 1
21 8 21 1
22 8 22 1
23 9 23 1
24 9 24 1
25 10 25 1
26 10 26 1
27 14 27 1

@<COSMOlogic>TOTAL_CHARGE
0.0
