# Created by COSMOvis on Mon Aug 09 22:24:23 CEST 2021
#
#

#
#

@<TRIPOS>MOLECULE
SAMPL8-4_micro000_c0
27 28
SMALL
USER_CHARGES

@<TRIPOS>ATOM
1 N 0.129900 0.012300 -0.113300 N 0 XO 0.000000
2 C 1.527800 0.004700 -0.051200 C 1 XO 0.000000
3 C 2.159100 1.333100 -0.125300 C 2 XO 0.000000
4 O 1.494600 2.364900 -0.194600 O 3 XO 0.000000
5 O 3.507900 1.311200 -0.111400 O 4 XO 0.000000
6 H 3.824400 2.239900 -0.152000 H 5 XO 0.000000
7 C -6.164700 1.783000 -1.186200 C 6 XO 0.000000
8 C -3.844200 1.095700 -1.600300 C 7 XO 0.000000
9 C -2.738400 0.314900 -1.302700 C 8 XO 0.000000
10 C -3.995400 -0.783100 0.470700 C 9 XO 0.000000
11 C -5.045400 0.971500 -0.865200 C 10 XO 0.000000
12 C -2.785900 -0.639900 -0.254300 C 11 XO 0.000000
13 C -5.088600 0.011200 0.172400 C 12 XO 0.000000
14 C 2.067700 -1.246700 0.081200 C 13 XO 0.000000
15 C -0.498200 -1.196300 -0.005100 C 14 XO 0.000000
16 C 3.482300 -1.708800 0.166200 C 15 XO 0.000000
17 N -7.071700 2.463100 -1.472800 N 16 XO 0.000000
18 N -1.755500 -1.510300 0.055700 N 17 XO 0.000000
19 S 0.771500 -2.450800 0.139800 S 18 XO 0.000000
20 Cl -6.569500 -0.186200 1.109600 Cl 19 XO 0.000000
21 H -3.797800 1.817300 -2.416300 H 20 XO 0.000000
22 H -1.842100 0.413700 -1.915300 H 21 XO 0.000000
23 H -4.051300 -1.524400 1.267000 H 22 XO 0.000000
24 H 3.764600 -2.258300 -0.745500 H 23 XO 0.000000
25 H 4.162400 -0.860300 0.284000 H 24 XO 0.000000
26 H 3.615600 -2.393500 1.016300 H 25 XO 0.000000
27 H -0.373400 0.900400 -0.125300 H 26 XO 0.000000

@<TRIPOS>BOND
1 1 2 1
2 1 15 1
3 2 3 1
4 2 14 2
5 3 4 2
6 3 5 1
7 7 11 1
8 7 17 3
9 8 9 ar
10 8 11 ar
11 9 12 ar
12 10 12 ar
13 10 13 ar
14 11 13 ar
15 12 18 1
16 13 20 1
17 14 16 1
18 14 19 1
19 15 18 2
20 15 19 1
21 1 27 1
22 5 6 1
23 8 21 1
24 9 22 1
25 10 23 1
26 16 24 1
27 16 25 1
28 16 26 1

@<COSMOlogic>TOTAL_CHARGE
0.0
