# Created by COSMOvis on Mon Aug 09 22:24:21 CEST 2021
#
#

#
#

@<TRIPOS>MOLECULE
SAMPL8-19_extra003_c0
46 49
SMALL
USER_CHARGES

@<TRIPOS>ATOM
1 C -8.310100 -0.476600 0.701900 C 0 XO 0.000000
2 C -7.930400 -0.116200 -0.610700 C 1 XO 0.000000
3 C -7.370600 -0.578700 1.730100 C 2 XO 0.000000
4 C -6.598700 0.153600 -0.939100 C 3 XO 0.000000
5 C 5.117800 -0.905700 -1.466200 C 4 XO 0.000000
6 C 4.882200 1.155400 -0.330500 C 5 XO 0.000000
7 C 4.364600 0.242500 -1.262200 C 6 XO 0.000000
8 C -6.027100 -0.313500 1.421600 C 7 XO 0.000000
9 C -5.662700 0.047600 0.096000 C 8 XO 0.000000
10 C -3.888200 -0.001200 1.432700 C 9 XO 0.000000
11 C 6.697800 -0.143800 0.125300 C 10 XO 0.000000
12 C 0.939300 0.894000 -0.618100 C 11 XO 0.000000
13 C 1.883100 0.016700 -1.107200 C 12 XO 0.000000
14 C 1.741100 -1.392300 -0.780800 C 13 XO 0.000000
15 C -0.156400 -0.790600 0.421100 C 14 XO 0.000000
16 C -3.468300 0.627700 -1.011200 C 15 XO 0.000000
17 C 8.356700 0.501700 1.705000 C 16 XO 0.000000
18 C 3.044300 0.464300 -1.963300 C 17 XO 0.000000
19 C -2.476200 0.080600 1.891000 C 18 XO 0.000000
20 N 6.267000 -1.076000 -0.772400 N 19 XO 1.000000
21 N 6.027700 0.975800 0.351200 N 20 XO 0.000000
22 N -4.899100 -0.336300 2.231500 N 21 XO 0.000000
23 N 0.669800 -1.754600 0.020800 N 22 XO 0.000000
24 N -4.290600 0.243800 0.131500 N 23 XO 0.000000
25 N -0.114100 0.517500 0.161400 N 24 XO 0.000000
26 O 2.551100 -2.269000 -1.204000 O 25 XO -1.000000
27 O 7.827400 -0.456000 0.732500 O 26 XO 0.000000
28 S -1.494900 -1.443900 1.461500 S 27 XO 0.000000
29 H -9.361600 -0.679300 0.913100 H 28 XO 0.000000
30 H -8.694300 -0.047500 -1.387000 H 29 XO 0.000000
31 H -7.665800 -0.856500 2.743700 H 30 XO 0.000000
32 H -6.311800 0.430900 -1.954400 H 31 XO 0.000000
33 H 4.848100 -1.693800 -2.163400 H 32 XO 0.000000
34 H 4.351700 2.088000 -0.121800 H 33 XO 0.000000
35 H 1.000000 1.962600 -0.850200 H 34 XO 0.000000
36 H -2.430900 0.767500 -0.686600 H 35 XO 0.000000
37 H -3.839200 1.568800 -1.439300 H 36 XO 0.000000
38 H -3.498300 -0.156400 -1.780700 H 37 XO 0.000000
39 H 7.640200 0.633200 2.523200 H 38 XO 0.000000
40 H 8.560100 1.457900 1.210300 H 39 XO 0.000000
41 H 9.280000 0.039800 2.061900 H 40 XO 0.000000
42 H 2.937500 1.532400 -2.203000 H 41 XO 0.000000
43 H 3.051500 -0.090900 -2.913600 H 42 XO 0.000000
44 H -1.917100 0.910300 1.435000 H 43 XO 0.000000
45 H -2.464400 0.183600 2.980900 H 44 XO 0.000000
46 H 6.832300 -1.917100 -0.917500 H 45 XO 0.000000

@<TRIPOS>BOND
1 1 2 ar
2 1 3 ar
3 2 4 ar
4 3 8 ar
5 4 9 ar
6 5 7 2
7 5 20 1
8 6 7 1
9 6 21 2
10 7 18 1
11 8 9 ar
12 8 22 ar
13 9 24 ar
14 10 19 1
15 10 22 ar
16 10 24 ar
17 11 20 2
18 11 21 1
19 11 27 1
20 12 13 ar
21 12 25 ar
22 13 14 ar
23 13 18 1
24 14 23 ar
25 14 26 1
26 15 23 ar
27 15 25 ar
28 15 28 1
29 16 24 1
30 17 27 1
31 19 28 1
32 1 29 1
33 2 30 1
34 3 31 1
35 4 32 1
36 5 33 1
37 6 34 1
38 12 35 1
39 16 36 1
40 16 37 1
41 16 38 1
42 17 39 1
43 17 40 1
44 17 41 1
45 18 42 1
46 18 43 1
47 19 44 1
48 19 45 1
49 20 46 1

@<COSMOlogic>TOTAL_CHARGE
0.0
