# Created by COSMOvis on Mon Aug 09 22:24:22 CEST 2021
#
#

#
#

@<TRIPOS>MOLECULE
SAMPL8-20_micro000_c0
26 28
SMALL
USER_CHARGES

@<TRIPOS>ATOM
1 C 4.333000 1.176600 -0.193900 C 0 XO 0.000000
2 C 3.322300 1.935500 -0.796400 C 1 XO 0.000000
3 C 1.999100 1.488200 -0.769500 C 2 XO 0.000000
4 C 1.672400 0.264300 -0.157200 C 3 XO 0.000000
5 C 2.692700 -0.491400 0.448000 C 4 XO 0.000000
6 C 4.012700 -0.032500 0.434900 C 5 XO 0.000000
7 C 0.247900 -0.160900 -0.109600 C 6 XO 0.000000
8 C -0.204100 -1.457900 -0.474300 C 7 XO 0.000000
9 C -1.549300 -1.816700 -0.370300 C 8 XO 0.000000
10 C -2.429000 -0.840800 0.082700 C 9 XO 0.000000
11 C -3.874800 -0.795500 0.330800 C 10 XO 0.000000
12 N -4.842300 -1.634700 0.137200 N 11 XO 0.000000
13 N -4.095400 0.484200 0.871500 N 12 XO 0.000000
14 N -2.940500 1.306100 0.688600 N 13 XO 0.000000
15 C -1.911400 0.440800 0.352800 C 14 XO 0.000000
16 N -0.626100 0.791100 0.293600 N 15 XO 0.000000
17 Cl 0.907400 -2.667500 -1.135200 Cl 16 XO 0.000000
18 H 5.366000 1.528800 -0.209500 H 17 XO 0.000000
19 H 3.564900 2.879800 -1.287200 H 18 XO 0.000000
20 H 1.209000 2.082800 -1.230600 H 19 XO 0.000000
21 H 2.452900 -1.428400 0.951500 H 20 XO 0.000000
22 H 4.793000 -0.620900 0.920700 H 21 XO 0.000000
23 H -1.880800 -2.821000 -0.636700 H 22 XO 0.000000
24 H -4.470800 -2.512900 -0.241100 H 23 XO 0.000000
25 H -4.967000 0.956500 0.629300 H 24 XO 0.000000
26 H -2.782000 1.946700 1.470000 H 25 XO 0.000000

@<TRIPOS>BOND
1 1 2 ar
2 1 6 ar
3 2 3 ar
4 3 4 ar
5 4 5 ar
6 4 7 1
7 5 6 ar
8 7 8 ar
9 7 16 ar
10 8 9 ar
11 8 17 1
12 9 10 ar
13 10 11 1
14 10 15 ar
15 11 12 2
16 11 13 1
17 13 14 1
18 14 15 1
19 15 16 ar
20 1 18 1
21 2 19 1
22 3 20 1
23 5 21 1
24 6 22 1
25 9 23 1
26 12 24 1
27 13 25 1
28 14 26 1

@<COSMOlogic>TOTAL_CHARGE
0.0
