# Created by COSMOvis on Mon Aug 09 22:24:23 CEST 2021
#
#

#
#

@<TRIPOS>MOLECULE
SAMPL8-22_extra003_c0
27 28
SMALL
USER_CHARGES

@<TRIPOS>ATOM
1 C 2.539300 -1.199500 0.506700 C 0 XO 0.000000
2 C 1.852400 1.526800 0.943600 C 1 XO 0.000000
3 C 3.407900 -0.356900 1.246000 C 2 XO 0.000000
4 C 3.062100 1.023600 1.468100 C 3 XO 0.000000
5 C 1.356200 -0.693500 0.001600 C 4 XO 0.000000
6 C 1.007800 0.698600 0.222300 C 5 XO 0.000000
7 C 4.634300 -0.730000 1.817200 C 6 XO 0.000000
8 C 4.990200 1.326300 2.639900 C 7 XO 0.000000
9 C 0.729800 -2.789300 -0.970100 C 8 XO 0.000000
10 C -0.584500 2.449400 -0.143100 C 9 XO 0.000000
11 N 3.883600 1.854000 2.179000 N 10 XO 0.000000
12 N 5.433600 0.062000 2.504800 N 11 XO 0.000000
13 N 5.138000 -2.110400 1.677400 N 12 XO 1.000000
14 O 0.449700 -1.393700 -0.709900 O 13 XO 0.000000
15 O -0.163700 1.074400 -0.319900 O 14 XO 0.000000
16 Cl 6.058900 2.389600 3.563500 Cl 15 XO 0.000000
17 H 2.795700 -2.243300 0.337800 H 16 XO 0.000000
18 H 1.610000 2.572400 1.120600 H 17 XO 0.000000
19 H -0.124100 -3.151000 -1.549800 H 18 XO 0.000000
20 H 0.808500 -3.350000 -0.027600 H 19 XO 0.000000
21 H 1.653900 -2.895100 -1.556500 H 20 XO 0.000000
22 H 0.141100 3.135600 -0.601900 H 21 XO 0.000000
23 H -0.707500 2.679800 0.924600 H 22 XO 0.000000
24 H -1.547100 2.522400 -0.656600 H 23 XO 0.000000
25 H 6.041500 -2.189000 2.169900 H 24 XO 0.000000
26 H 5.300400 -2.374100 0.692900 H 25 XO 0.000000
27 H 4.500400 -2.808600 2.091000 H 26 XO 0.000000

@<TRIPOS>BOND
1 1 3 ar
2 1 5 ar
3 2 4 ar
4 2 6 ar
5 3 4 ar
6 3 7 ar
7 4 11 ar
8 5 6 ar
9 5 14 1
10 6 15 1
11 7 12 ar
12 7 13 1
13 8 11 ar
14 8 12 ar
15 8 16 1
16 9 14 1
17 10 15 1
18 1 17 1
19 2 18 1
20 9 19 1
21 9 20 1
22 9 21 1
23 10 22 1
24 10 23 1
25 10 24 1
26 13 25 1
27 13 26 1
28 13 27 1

@<COSMOlogic>TOTAL_CHARGE
1.0
