# Created by COSMOvis on Mon Aug 09 22:24:22 CEST 2021
#
#

#
#

@<TRIPOS>MOLECULE
SAMPL8-21_micro004_c0
38 39
SMALL
USER_CHARGES

@<TRIPOS>ATOM
1 C 3.118500 -1.648700 0.218400 C 0 XO 0.000000
2 O 2.076400 -1.566400 1.212900 O 1 XO 0.000000
3 C 1.089300 -0.614800 0.913700 C 2 XO 0.000000
4 C 0.930600 0.452800 1.808400 C 3 XO 0.000000
5 C -0.057000 1.425000 1.611800 C 4 XO 0.000000
6 C -0.883400 1.302200 0.475600 C 5 XO 0.000000
7 C -0.727600 0.242000 -0.420400 C 6 XO 0.000000
8 C 0.255000 -0.806900 -0.236900 C 7 XO 0.000000
9 O 0.363000 -1.813900 -1.049200 O 8 XO -1.000000
10 O -1.516900 0.069000 -1.551300 O 9 XO 0.000000
11 C -2.542600 1.039000 -1.788400 C 10 XO 0.000000
12 C -0.273000 2.549000 2.622400 C 11 XO 0.000000
13 C -0.493700 3.922200 2.034600 C 12 XO 0.000000
14 C 0.602200 4.661700 1.393800 C 13 XO 0.000000
15 N 0.387800 5.936800 0.905200 N 14 XO 0.000000
16 C -0.826700 6.517700 0.979300 C 15 XO 0.000000
17 N -1.891700 5.799500 1.572900 N 16 XO 0.000000
18 C -1.716800 4.540300 2.085900 C 17 XO 0.000000
19 O -2.788200 3.913300 2.651400 O 18 XO 0.000000
20 C -4.035500 4.628700 2.790700 C 19 XO 0.000000
21 N -1.150100 7.723700 0.542700 N 20 XO -1.000000
22 N 1.825000 4.164700 1.267400 N 21 XO 0.000000
23 H 3.802600 -2.443300 0.544100 H 22 XO 0.000000
24 H 3.671700 -0.695300 0.158500 H 23 XO 0.000000
25 H 2.690900 -1.897800 -0.763900 H 24 XO 0.000000
26 H 1.604500 0.513500 2.668900 H 25 XO 0.000000
27 H -1.639900 2.068300 0.298800 H 26 XO 0.000000
28 H -3.275700 1.064200 -0.964500 H 27 XO 0.000000
29 H -3.045100 0.726400 -2.711300 H 28 XO 0.000000
30 H -2.123300 2.049700 -1.926600 H 29 XO 0.000000
31 H 0.606100 2.576600 3.292400 H 30 XO 0.000000
32 H -1.132300 2.305600 3.267700 H 31 XO 0.000000
33 H -2.798200 6.258900 1.586400 H 32 XO 0.000000
34 H -4.459700 4.890700 1.809800 H 33 XO 0.000000
35 H -3.913400 5.529400 3.410200 H 34 XO 0.000000
36 H -4.710200 3.930800 3.295700 H 35 XO 0.000000
37 H -0.300600 8.131700 0.134100 H 36 XO 0.000000
38 H 1.827700 3.203200 1.627500 H 37 XO 0.000000

@<TRIPOS>BOND
1 1 2 1
2 2 3 1
3 3 4 ar
4 3 8 ar
5 4 5 ar
6 5 6 ar
7 5 12 1
8 6 7 ar
9 7 8 ar
10 7 10 1
11 8 9 1
12 10 11 1
13 12 13 1
14 13 14 1
15 13 18 2
16 14 15 1
17 14 22 2
18 15 16 2
19 16 17 1
20 16 21 1
21 17 18 1
22 18 19 1
23 19 20 1
24 1 23 1
25 1 24 1
26 1 25 1
27 4 26 1
28 6 27 1
29 11 28 1
30 11 29 1
31 11 30 1
32 12 31 1
33 12 32 1
34 17 33 1
35 20 34 1
36 20 35 1
37 20 36 1
38 21 37 1
39 22 38 1

@<COSMOlogic>TOTAL_CHARGE
-2.0
