# Created by COSMOvis on Mon Aug 09 22:24:21 CEST 2021
#
#

#
#

@<TRIPOS>MOLECULE
SAMPL8-19_micro010_c0
45 48
SMALL
USER_CHARGES

@<TRIPOS>ATOM
1 C 4.431100 -1.357200 -0.192100 C 0 XO 0.000000
2 N 3.324400 -2.084300 0.404900 N 1 XO 0.000000
3 C 2.126700 -1.542100 0.873000 C 2 XO 0.000000
4 C 1.661400 -0.230200 0.943000 C 3 XO 0.000000
5 C 0.379200 -0.022600 1.485300 C 4 XO 0.000000
6 C -0.402600 -1.093700 1.939100 C 5 XO 0.000000
7 C 0.065900 -2.418900 1.869300 C 6 XO 0.000000
8 C 1.333900 -2.623700 1.332100 C 7 XO 0.000000
9 N 2.082400 -3.774700 1.127800 N 8 XO 0.000000
10 C 3.299600 -3.471700 0.536200 C 9 XO 0.000000
11 C 4.282100 -4.347200 0.140700 C 10 XO 0.000000
12 S 4.078800 -6.085700 0.317400 S 11 XO 0.000000
13 C 4.782200 -6.546500 1.953800 C 12 XO 0.000000
14 N 4.708000 -7.859800 2.171900 N 13 XO 0.000000
15 C 5.209100 -8.350400 3.367500 C 14 XO 0.000000
16 O 5.162500 -9.590700 3.620900 O 15 XO -1.000000
17 C 5.780200 -7.385400 4.297000 C 16 XO 0.000000
18 C 5.781000 -6.059700 3.920200 C 17 XO 0.000000
19 N 5.282900 -5.592600 2.735400 N 18 XO 0.000000
20 C 6.331000 -7.907900 5.607600 C 19 XO 0.000000
21 C 6.878000 -6.859200 6.539900 C 20 XO 0.000000
22 C 6.087300 -6.217700 7.497100 C 21 XO 0.000000
23 N 6.555900 -5.269100 8.330000 N 22 XO 0.000000
24 C 7.851100 -4.962800 8.190800 C 23 XO 0.000000
25 N 8.724900 -5.512400 7.328300 N 24 XO 0.000000
26 C 8.221000 -6.451800 6.515700 C 25 XO 0.000000
27 O 8.398600 -4.010500 8.978800 O 26 XO 0.000000
28 C 7.529200 -3.356400 9.937400 C 27 XO 0.000000
29 H 4.569000 -1.651600 -1.243400 H 28 XO 0.000000
30 H 5.362200 -1.550500 0.360100 H 29 XO 0.000000
31 H 4.217000 -0.284500 -0.151300 H 30 XO 0.000000
32 H 2.260600 0.609700 0.590400 H 31 XO 0.000000
33 H -0.009400 0.994900 1.549800 H 32 XO 0.000000
34 H -1.393300 -0.901600 2.354000 H 33 XO 0.000000
35 H -0.540300 -3.254200 2.221700 H 34 XO 0.000000
36 H 1.791000 -4.729600 1.314300 H 35 XO 0.000000
37 H 5.213300 -3.968300 -0.273400 H 36 XO 0.000000
38 H 6.198000 -5.294500 4.582400 H 37 XO 0.000000
39 H 7.116900 -8.651000 5.389100 H 38 XO 0.000000
40 H 5.535900 -8.475300 6.120600 H 39 XO 0.000000
41 H 5.030000 -6.476400 7.612200 H 40 XO 0.000000
42 H 8.926600 -6.908700 5.814500 H 41 XO 0.000000
43 H 7.121500 -4.084000 10.651200 H 42 XO 0.000000
44 H 6.706200 -2.841000 9.425700 H 43 XO 0.000000
45 H 8.171700 -2.635000 10.451600 H 44 XO 0.000000

@<TRIPOS>BOND
1 1 2 1
2 2 3 1
3 2 10 1
4 3 4 ar
5 3 8 ar
6 4 5 ar
7 5 6 ar
8 6 7 ar
9 7 8 ar
10 8 9 1
11 9 10 1
12 10 11 2
13 11 12 1
14 12 13 1
15 13 14 ar
16 13 19 ar
17 14 15 ar
18 15 16 1
19 15 17 ar
20 17 18 ar
21 17 20 1
22 18 19 ar
23 20 21 1
24 21 22 ar
25 21 26 ar
26 22 23 ar
27 23 24 ar
28 24 25 ar
29 24 27 1
30 25 26 ar
31 27 28 1
32 1 29 1
33 1 30 1
34 1 31 1
35 4 32 1
36 5 33 1
37 6 34 1
38 7 35 1
39 9 36 1
40 11 37 1
41 18 38 1
42 20 39 1
43 20 40 1
44 22 41 1
45 26 42 1
46 28 43 1
47 28 44 1
48 28 45 1

@<COSMOlogic>TOTAL_CHARGE
-1.0
