# Created by COSMOvis on Mon Aug 09 22:24:22 CEST 2021
#
#

#
#

@<TRIPOS>MOLECULE
SAMPL8-21_micro009_c0
39 40
SMALL
USER_CHARGES

@<TRIPOS>ATOM
1 C -4.034800 2.227000 2.469300 C 0 XO 0.000000
2 O -4.040800 0.870600 1.986200 O 1 XO 0.000000
3 C -2.956300 0.444000 1.251300 C 2 XO 0.000000
4 C -1.829900 1.212500 0.930500 C 3 XO 0.000000
5 C -0.787000 0.642500 0.182700 C 4 XO 0.000000
6 C -0.884100 -0.693900 -0.232100 C 5 XO 0.000000
7 C -2.013500 -1.463800 0.083000 C 6 XO 0.000000
8 C -3.060300 -0.892900 0.829700 C 7 XO 0.000000
9 O -4.161900 -1.652000 1.150700 O 8 XO 0.000000
10 O -2.198500 -2.775800 -0.280100 O 9 XO 0.000000
11 C -1.149900 -3.405300 -1.038600 C 10 XO 0.000000
12 C 0.423100 1.491000 -0.208600 C 11 XO 0.000000
13 C 1.753900 0.779500 -0.178200 C 12 XO 0.000000
14 C 2.355500 0.337500 1.025700 C 13 XO 0.000000
15 N 1.726900 0.595000 2.241900 N 14 XO 0.000000
16 N 3.541800 -0.282600 1.096400 N 15 XO 0.000000
17 C 4.229100 -0.501600 -0.083500 C 16 XO 0.000000
18 N 3.706200 -0.111200 -1.317200 N 17 XO 0.000000
19 C 2.527300 0.493600 -1.320500 C 18 XO 0.000000
20 O 1.999300 0.887100 -2.527400 O 19 XO 0.000000
21 C 2.770600 0.594900 -3.711100 C 20 XO 0.000000
22 N 5.411400 -1.105100 -0.013900 N 21 XO -1.000000
23 H -3.186400 2.398300 3.148900 H 22 XO 0.000000
24 H -3.994400 2.941400 1.633000 H 23 XO 0.000000
25 H -4.975600 2.350100 3.015100 H 24 XO 0.000000
26 H -1.756700 2.249400 1.259800 H 25 XO 0.000000
27 H -0.058200 -1.129200 -0.793600 H 26 XO 0.000000
28 H -4.760100 -1.076900 1.672000 H 27 XO 0.000000
29 H -0.207700 -3.431400 -0.469700 H 28 XO 0.000000
30 H -0.989700 -2.892000 -1.999400 H 29 XO 0.000000
31 H -1.495000 -4.428000 -1.222900 H 30 XO 0.000000
32 H 0.444300 2.373500 0.454900 H 31 XO 0.000000
33 H 0.262400 1.884100 -1.224400 H 32 XO 0.000000
34 H 2.071700 0.017700 3.007700 H 33 XO 0.000000
35 H 0.709100 0.643800 2.212100 H 34 XO 0.000000
36 H 2.175300 0.989300 -4.542500 H 35 XO 0.000000
37 H 2.919000 -0.487200 -3.831200 H 36 XO 0.000000
38 H 3.751500 1.088700 -3.678700 H 37 XO 0.000000
39 H 5.762200 -1.183100 -0.977300 H 38 XO 0.000000

@<TRIPOS>BOND
1 1 2 1
2 2 3 1
3 3 4 ar
4 3 8 ar
5 4 5 ar
6 5 6 ar
7 5 12 1
8 6 7 ar
9 7 8 ar
10 7 10 1
11 8 9 1
12 10 11 1
13 12 13 1
14 13 14 ar
15 13 19 ar
16 14 15 1
17 14 16 ar
18 16 17 ar
19 17 18 ar
20 17 22 1
21 18 19 ar
22 19 20 1
23 20 21 1
24 1 23 1
25 1 24 1
26 1 25 1
27 4 26 1
28 6 27 1
29 9 28 1
30 11 29 1
31 11 30 1
32 11 31 1
33 12 32 1
34 12 33 1
35 15 34 1
36 15 35 1
37 21 36 1
38 21 37 1
39 21 38 1
40 22 39 1

@<COSMOlogic>TOTAL_CHARGE
-1.0
