# Created by COSMOvis on Mon Aug 09 22:24:20 CEST 2021
#
#

#
#

@<TRIPOS>MOLECULE
SAMPL8-12_extra003_c0
42 44
SMALL
USER_CHARGES

@<TRIPOS>ATOM
1 C 0.039800 4.229800 -0.094300 C 0 XO 0.000000
2 C 0.859400 3.026400 -2.010400 C 1 XO 0.000000
3 C -0.464600 3.037400 0.438300 C 2 XO 0.000000
4 C 0.357800 1.835600 -1.480500 C 3 XO 0.000000
5 C 1.377500 0.170200 1.385400 C 4 XO 0.000000
6 C 0.708900 4.247800 -1.328300 C 5 XO 0.000000
7 C -0.312900 1.822400 -0.245500 C 6 XO 0.000000
8 C 0.198600 -0.374200 0.954600 C 7 XO 0.000000
9 C 0.125200 -1.826600 1.024600 C 8 XO 0.000000
10 C 2.355900 -1.963600 1.674100 C 9 XO 0.000000
11 C -0.950600 -3.991900 0.511700 C 10 XO 0.000000
12 C -2.378400 -2.067600 0.956900 C 11 XO 0.000000
13 C -1.654700 -4.749200 1.635000 C 12 XO 0.000000
14 C -3.034600 -2.893300 2.071000 C 13 XO 0.000000
15 C 1.223200 5.537600 -1.920300 C 14 XO 0.000000
16 C -0.859400 0.528800 0.328600 C 15 XO 0.000000
17 N 2.424800 -0.600900 1.802300 N 16 XO 0.000000
18 N 1.230800 -2.559300 1.303400 N 17 XO 0.000000
19 N -0.998400 -2.536800 0.747700 N 18 XO 0.000000
20 N 3.450100 -2.691100 1.947200 N 19 XO 1.000000
21 O -3.013000 -4.298500 1.787400 O 20 XO 0.000000
22 H -0.091000 5.162200 0.460500 H 21 XO 0.000000
23 H 1.375900 3.009300 -2.973400 H 22 XO 0.000000
24 H -0.984600 3.054200 1.399500 H 23 XO 0.000000
25 H 0.488500 0.902600 -2.034600 H 24 XO 0.000000
26 H 1.563100 1.242000 1.382200 H 25 XO 0.000000
27 H 0.092000 -4.309700 0.425500 H 26 XO 0.000000
28 H -1.471400 -4.180800 -0.440800 H 27 XO 0.000000
29 H -2.943100 -2.181600 0.019000 H 28 XO 0.000000
30 H -2.395500 -1.019100 1.258000 H 29 XO 0.000000
31 H -1.702900 -5.819000 1.395500 H 30 XO 0.000000
32 H -1.107600 -4.615900 2.586400 H 31 XO 0.000000
33 H -2.519100 -2.695900 3.029700 H 32 XO 0.000000
34 H -4.089300 -2.603900 2.165100 H 33 XO 0.000000
35 H 0.482700 5.976200 -2.609100 H 34 XO 0.000000
36 H 1.427200 6.283500 -1.139900 H 35 XO 0.000000
37 H 2.145300 5.375200 -2.496300 H 36 XO 0.000000
38 H -1.637100 0.779400 1.067200 H 37 XO 0.000000
39 H -1.357600 -0.033800 -0.475000 H 38 XO 0.000000
40 H 4.321500 -2.267800 2.248300 H 39 XO 0.000000
41 H 3.389300 -3.703100 1.909000 H 40 XO 0.000000
42 H 3.284400 -0.150900 2.114400 H 41 XO 0.000000

@<TRIPOS>BOND
1 1 3 ar
2 1 6 ar
3 2 4 ar
4 2 6 ar
5 3 7 ar
6 4 7 ar
7 5 8 2
8 5 17 1
9 6 15 1
10 7 16 1
11 8 9 1
12 8 16 1
13 9 18 2
14 9 19 1
15 10 17 1
16 10 18 1
17 10 20 2
18 11 13 1
19 11 19 1
20 12 14 1
21 12 19 1
22 13 21 1
23 14 21 1
24 1 22 1
25 2 23 1
26 3 24 1
27 4 25 1
28 5 26 1
29 11 27 1
30 11 28 1
31 12 29 1
32 12 30 1
33 13 31 1
34 13 32 1
35 14 33 1
36 14 34 1
37 15 35 1
38 15 36 1
39 15 37 1
40 16 38 1
41 16 39 1
42 17 42 1
43 20 40 1
44 20 41 1

@<COSMOlogic>TOTAL_CHARGE
1.0
