# Created by COSMOvis on Mon Aug 09 22:24:22 CEST 2021
#
#

#
#

@<TRIPOS>MOLECULE
SAMPL8-20_micro022_c0
26 28
SMALL
USER_CHARGES

@<TRIPOS>ATOM
1 C -4.534700 0.006300 -0.472800 C 0 XO 0.000000
2 C -3.682200 -0.235700 -1.556800 C 1 XO 0.000000
3 C -3.995100 0.199200 0.804500 C 2 XO 0.000000
4 C -2.299100 -0.284400 -1.363900 C 3 XO 0.000000
5 C -2.612800 0.136000 1.002600 C 4 XO 0.000000
6 C 1.798700 -0.873200 1.191600 C 5 XO 0.000000
7 C 2.503000 -0.052300 0.306300 C 6 XO 0.000000
8 C -1.749900 -0.108900 -0.080600 C 7 XO 0.000000
9 C 0.413800 -0.899000 1.063300 C 8 XO 0.000000
10 C -0.269600 -0.120100 0.079400 C 9 XO 0.000000
11 C 1.744800 0.661000 -0.665600 C 10 XO 0.000000
12 C 3.868800 0.299700 0.032200 C 11 XO 0.000000
13 N 0.411500 0.647800 -0.793400 N 12 XO 0.000000
14 N 3.937400 1.144500 -1.001200 N 13 XO 0.000000
15 N 2.637800 1.347200 -1.426000 N 14 XO 0.000000
16 N 5.004300 -0.202800 0.646000 N 15 XO 0.000000
17 Cl -0.476000 -2.011800 2.121300 Cl 16 XO 0.000000
18 H -5.615000 0.049100 -0.623600 H 17 XO 0.000000
19 H -4.095300 -0.386400 -2.555900 H 18 XO 0.000000
20 H -4.652400 0.403100 1.651600 H 19 XO 0.000000
21 H -1.633200 -0.465700 -2.209000 H 20 XO 0.000000
22 H -2.203800 0.299700 2.000000 H 21 XO 0.000000
23 H 2.297400 -1.486400 1.942500 H 22 XO 0.000000
24 H 2.454100 1.982700 -2.196300 H 23 XO 0.000000
25 H 5.846800 0.341700 0.461900 H 24 XO 0.000000
26 H 4.900600 -0.391100 1.641700 H 25 XO 0.000000

@<TRIPOS>BOND
1 1 2 ar
2 1 3 ar
3 2 4 ar
4 3 5 ar
5 4 8 ar
6 5 8 ar
7 6 7 ar
8 6 9 ar
9 7 11 ar
10 7 12 ar
11 8 10 1
12 9 10 ar
13 9 17 1
14 10 13 ar
15 11 13 ar
16 11 15 ar
17 12 14 ar
18 12 16 1
19 14 15 ar
20 1 18 1
21 2 19 1
22 3 20 1
23 4 21 1
24 5 22 1
25 6 23 1
26 15 24 1
27 16 25 1
28 16 26 1

@<COSMOlogic>TOTAL_CHARGE
0.0
