# Created by COSMOvis on Mon Aug 09 22:24:23 CEST 2021
#
#

#
#

@<TRIPOS>MOLECULE
SAMPL8-23_micro006_c0
19 20
SMALL
USER_CHARGES

@<TRIPOS>ATOM
1 C 3.022100 -3.887300 0.062400 C 0 XO 0.000000
2 C 1.988900 -2.827600 0.023400 C 1 XO 0.000000
3 N 2.255500 -1.530000 -0.122200 N 2 XO 1.000000
4 C 1.162900 -0.666500 -0.092400 C 3 XO 0.000000
5 C 1.188600 0.724100 -0.223700 C 4 XO 0.000000
6 C -0.039700 1.389400 -0.169300 C 5 XO 0.000000
7 C -1.251100 0.679500 0.011500 C 6 XO 0.000000
8 C -1.262600 -0.703600 0.139600 C 7 XO 0.000000
9 C -0.037900 -1.378700 0.091700 C 8 XO 0.000000
10 S 0.294000 -3.107700 0.210400 S 9 XO 0.000000
11 O -0.143300 2.744400 -0.284300 O 10 XO 0.000000
12 H 3.343500 -4.053400 1.102800 H 11 XO 0.000000
13 H 3.898300 -3.586700 -0.525900 H 12 XO 0.000000
14 H 2.628600 -4.833200 -0.327200 H 13 XO 0.000000
15 H 3.213600 -1.196300 -0.250400 H 14 XO 0.000000
16 H 2.126600 1.262700 -0.364500 H 15 XO 0.000000
17 H -2.185200 1.240700 0.046300 H 16 XO 0.000000
18 H -2.200700 -1.239500 0.278500 H 17 XO 0.000000
19 H 0.741800 3.139400 -0.404500 H 18 XO 0.000000

@<TRIPOS>BOND
1 1 2 1
2 2 3 2
3 2 10 1
4 3 4 1
5 4 5 ar
6 4 9 ar
7 5 6 ar
8 6 7 ar
9 6 11 1
10 7 8 ar
11 8 9 ar
12 9 10 1
13 1 12 1
14 1 13 1
15 1 14 1
16 3 15 1
17 5 16 1
18 7 17 1
19 8 18 1
20 11 19 1

@<COSMOlogic>TOTAL_CHARGE
1.0
