# Created by COSMOvis on Mon Aug 09 22:24:20 CEST 2021
#
#

#
#

@<TRIPOS>MOLECULE
SAMPL8-14_extra009_c0
45 46
SMALL
USER_CHARGES

@<TRIPOS>ATOM
1 C -0.782100 3.437200 3.914100 C 0 XO 0.000000
2 C 0.563300 3.465100 3.229300 C 1 XO 0.000000
3 C 1.425600 2.364900 3.281600 C 2 XO 0.000000
4 C 2.675900 2.397100 2.655000 C 3 XO 0.000000
5 C 3.053400 3.558300 1.965200 C 4 XO 0.000000
6 C 2.232200 4.693300 1.872800 C 5 XO 0.000000
7 C 0.974400 4.616900 2.522600 C 6 XO 0.000000
8 O 0.137200 5.709600 2.463500 O 7 XO 0.000000
9 C 2.686400 5.950600 1.101800 C 8 XO 0.000000
10 C 2.747900 7.169100 2.056000 C 9 XO 0.000000
11 C 4.091000 5.773700 0.490300 C 10 XO 0.000000
12 C 1.707900 6.238100 -0.063900 C 11 XO 0.000000
13 C 3.597400 1.196900 2.701300 C 12 XO 0.000000
14 C 3.439000 0.240100 1.538000 C 13 XO 0.000000
15 C 2.547700 0.426200 0.522500 C 14 XO 0.000000
16 N 2.428700 -0.457400 -0.518800 N 15 XO 0.000000
17 C 3.185800 -1.573300 -0.608900 C 16 XO 0.000000
18 N 3.072400 -2.421700 -1.609600 N 17 XO 0.000000
19 N 4.082600 -1.784700 0.393000 N 18 XO 0.000000
20 C 4.252100 -0.938500 1.462700 C 19 XO 0.000000
21 N 5.155400 -1.253600 2.369800 N 20 XO 2.000000
22 H -1.611800 3.585100 3.202000 H 21 XO 0.000000
23 H -0.944400 2.470400 4.406300 H 22 XO 0.000000
24 H -0.868100 4.218000 4.688800 H 23 XO 0.000000
25 H 1.111100 1.473000 3.829700 H 24 XO 0.000000
26 H 4.032200 3.573900 1.486300 H 25 XO 0.000000
27 H -0.688200 5.506900 2.944500 H 26 XO 0.000000
28 H 3.080000 8.058800 1.498600 H 27 XO 0.000000
29 H 1.770800 7.387300 2.503100 H 28 XO 0.000000
30 H 3.469500 6.988800 2.867300 H 29 XO 0.000000
31 H 4.858700 5.597200 1.258500 H 30 XO 0.000000
32 H 4.126800 4.945900 -0.233700 H 31 XO 0.000000
33 H 4.363000 6.695000 -0.045700 H 32 XO 0.000000
34 H 0.687700 6.417600 0.295100 H 33 XO 0.000000
35 H 2.042500 7.129700 -0.617000 H 34 XO 0.000000
36 H 1.685300 5.391900 -0.767800 H 35 XO 0.000000
37 H 4.646900 1.536500 2.727600 H 36 XO 0.000000
38 H 3.426600 0.636400 3.635700 H 37 XO 0.000000
39 H 1.880800 1.284200 0.479700 H 38 XO 0.000000
40 H 1.746000 -0.267300 -1.253500 H 39 XO 0.000000
41 H 3.649000 -3.258100 -1.666000 H 40 XO 0.000000
42 H 2.400400 -2.264200 -2.357100 H 41 XO 0.000000
43 H 4.659900 -2.626600 0.337700 H 42 XO 0.000000
44 H 5.309400 -0.653600 3.176500 H 43 XO 0.000000
45 H 5.727600 -2.094000 2.306600 H 44 XO 0.000000

@<TRIPOS>BOND
1 1 2 1
2 2 3 ar
3 2 7 ar
4 3 4 ar
5 4 5 ar
6 4 13 1
7 5 6 ar
8 6 7 ar
9 6 9 1
10 7 8 1
11 9 10 1
12 9 11 1
13 9 12 1
14 13 14 1
15 14 15 ar
16 14 20 ar
17 15 16 ar
18 16 17 ar
19 17 18 1
20 17 19 ar
21 19 20 ar
22 20 21 1
23 1 22 1
24 1 23 1
25 1 24 1
26 3 25 1
27 5 26 1
28 8 27 1
29 10 28 1
30 10 29 1
31 10 30 1
32 11 31 1
33 11 32 1
34 11 33 1
35 12 34 1
36 12 35 1
37 12 36 1
38 13 37 1
39 13 38 1
40 15 39 1
41 16 40 1
42 18 41 1
43 18 42 1
44 19 43 1
45 21 44 1
46 21 45 1

@<COSMOlogic>TOTAL_CHARGE
2.0
