# Created by COSMOvis on Mon Aug 09 22:24:21 CEST 2021
#
#

#
#

@<TRIPOS>MOLECULE
SAMPL8-14_micro008_c0
42 43
SMALL
USER_CHARGES

@<TRIPOS>ATOM
1 C 0.551000 1.501700 0.245800 C 0 XO 0.000000
2 C -0.899400 -0.091600 -0.815600 C 1 XO 0.000000
3 C 3.948800 0.448400 -1.480400 C 2 XO 0.000000
4 C 0.349600 0.554400 -0.773100 C 3 XO 0.000000
5 C -0.442300 1.802000 1.178200 C 4 XO 0.000000
6 C -1.938300 0.159100 0.094500 C 5 XO 0.000000
7 C 2.755700 -0.211100 -1.221900 C 6 XO 0.000000
8 C -1.731200 1.139700 1.146400 C 7 XO 0.000000
9 C 2.881200 -1.359200 -0.384400 C 8 XO 0.000000
10 C 5.158600 -1.047900 -0.260700 C 9 XO 0.000000
11 C -0.210400 2.824500 2.261000 C 10 XO 0.000000
12 C -3.527100 -1.384900 1.300900 C 11 XO 0.000000
13 C -4.429900 0.427200 -0.210300 C 12 XO 0.000000
14 C -3.326100 -1.590300 -1.175900 C 13 XO 0.000000
15 C 1.432400 0.240800 -1.799000 C 14 XO 0.000000
16 C -3.280600 -0.590100 -0.005100 C 15 XO 0.000000
17 N 5.162700 0.067700 -1.022300 N 16 XO 0.000000
18 N 4.074300 -1.771600 0.090200 N 17 XO 0.000000
19 N 1.788100 -2.116100 -0.064100 N 18 XO 0.000000
20 N 6.379200 -1.518000 0.166700 N 19 XO 0.000000
21 O -2.630000 1.437600 2.035900 O 20 XO -1.000000
22 H 1.514400 2.021200 0.311700 H 21 XO 0.000000
23 H -1.059500 -0.822700 -1.613400 H 22 XO 0.000000
24 H 3.938100 1.349400 -2.103900 H 23 XO 0.000000
25 H -0.332300 2.383400 3.264700 H 24 XO 0.000000
26 H 0.797900 3.258500 2.191500 H 25 XO 0.000000
27 H -0.947000 3.644000 2.206500 H 26 XO 0.000000
28 H -4.509100 -1.885900 1.268900 H 27 XO 0.000000
29 H -3.497900 -0.704500 2.162300 H 28 XO 0.000000
30 H -2.754200 -2.158700 1.432800 H 29 XO 0.000000
31 H -4.308900 0.958700 -1.167700 H 30 XO 0.000000
32 H -5.404300 -0.088700 -0.228600 H 31 XO 0.000000
33 H -4.427100 1.161800 0.606100 H 32 XO 0.000000
34 H -2.556800 -2.372300 -1.080600 H 33 XO 0.000000
35 H -4.307700 -2.089200 -1.188700 H 34 XO 0.000000
36 H -3.192300 -1.094300 -2.149800 H 35 XO 0.000000
37 H 1.632700 1.120600 -2.435500 H 36 XO 0.000000
38 H 1.046400 -0.540100 -2.478800 H 37 XO 0.000000
39 H 1.909400 -2.794900 0.684600 H 38 XO 0.000000
40 H 0.879400 -1.649800 -0.103100 H 39 XO 0.000000
41 H 7.145100 -0.849900 0.159100 H 40 XO 0.000000
42 H 6.367700 -2.158500 0.955800 H 41 XO 0.000000

@<TRIPOS>BOND
1 1 4 ar
2 1 5 ar
3 2 4 ar
4 2 6 ar
5 3 7 ar
6 3 17 ar
7 4 15 1
8 5 8 ar
9 5 11 1
10 6 8 ar
11 6 16 1
12 7 9 ar
13 7 15 1
14 8 21 1
15 9 18 ar
16 9 19 1
17 10 17 ar
18 10 18 ar
19 10 20 1
20 12 16 1
21 13 16 1
22 14 16 1
23 1 22 1
24 2 23 1
25 3 24 1
26 11 25 1
27 11 26 1
28 11 27 1
29 12 28 1
30 12 29 1
31 12 30 1
32 13 31 1
33 13 32 1
34 13 33 1
35 14 34 1
36 14 35 1
37 14 36 1
38 15 37 1
39 15 38 1
40 19 39 1
41 19 40 1
42 20 41 1
43 20 42 1

@<COSMOlogic>TOTAL_CHARGE
-1.0
