# Created by COSMOvis on Mon Aug 09 22:24:23 CEST 2021
#
#

#
#

@<TRIPOS>MOLECULE
SAMPL8-4_micro005_c0
26 27
SMALL
USER_CHARGES

@<TRIPOS>ATOM
1 N -0.629400 -1.654200 4.493300 N 0 XO 0.000000
2 C -1.382200 -1.797000 5.656500 C 1 XO 0.000000
3 C -1.292700 -3.118100 6.420700 C 2 XO 0.000000
4 O -1.582000 -3.097200 7.657600 O 3 XO -1.000000
5 O -0.939600 -4.131700 5.749600 O 4 XO 0.000000
6 C 3.580100 -2.304200 -0.681500 C 5 XO 0.000000
7 C 2.108700 -0.453300 -0.012200 C 6 XO 0.000000
8 C 1.174900 0.096900 0.844000 C 7 XO 0.000000
9 C 1.203800 -1.935800 2.199600 C 8 XO 0.000000
10 C 2.620500 -1.755800 0.207700 C 9 XO 0.000000
11 C 0.708400 -0.633700 1.964400 C 10 XO 0.000000
12 C 2.141700 -2.468600 1.327900 C 11 XO 0.000000
13 C -2.184900 -0.725800 5.989500 C 12 XO 0.000000
14 C -0.829200 -0.495500 3.931300 C 13 XO 0.000000
15 C -3.129900 -0.521200 7.129400 C 14 XO 0.000000
16 N 4.369900 -2.730300 -1.431400 N 15 XO 0.000000
17 N -0.225400 -0.019700 2.782500 N 16 XO 0.000000
18 S -2.001000 0.548300 4.773800 S 17 XO 0.000000
19 Cl 2.748500 -4.094300 1.641600 Cl 18 XO 0.000000
20 H 2.462100 0.116800 -0.871300 H 19 XO 0.000000
21 H 0.794000 1.102200 0.656500 H 20 XO 0.000000
22 H 0.843900 -2.500600 3.057200 H 21 XO 0.000000
23 H -2.834600 0.340000 7.749300 H 22 XO 0.000000
24 H -4.156100 -0.335800 6.776400 H 23 XO 0.000000
25 H -3.115300 -1.420300 7.755800 H 24 XO 0.000000
26 H -0.500600 0.917600 2.496100 H 25 XO 0.000000

@<TRIPOS>BOND
1 1 2 ar
2 1 14 ar
3 2 3 1
4 2 13 ar
5 3 4 1
6 3 5 2
7 6 10 1
8 6 16 3
9 7 8 ar
10 7 10 ar
11 8 11 ar
12 9 11 ar
13 9 12 ar
14 10 12 ar
15 11 17 1
16 12 19 1
17 13 15 1
18 13 18 ar
19 14 17 1
20 14 18 ar
21 7 20 1
22 8 21 1
23 9 22 1
24 15 23 1
25 15 24 1
26 15 25 1
27 17 26 1

@<COSMOlogic>TOTAL_CHARGE
-1.0
