# Created by COSMOvis on Mon Aug 09 22:24:23 CEST 2021
#
#

#
#

@<TRIPOS>MOLECULE
SAMPL8-6_micro003_c0
31 32
SMALL
USER_CHARGES

@<TRIPOS>ATOM
1 C -2.057800 -0.007500 2.168100 C 0 XO 0.000000
2 C -2.274100 1.320600 2.538700 C 1 XO 0.000000
3 C 2.756100 -1.496400 -0.915500 C 2 XO 0.000000
4 C 1.707700 -1.085400 -1.770600 C 3 XO 0.000000
5 C -1.936500 2.002600 0.232600 C 4 XO 0.000000
6 C -1.774500 -0.378500 0.843300 C 5 XO 0.000000
7 C -1.719700 0.664300 -0.092800 C 6 XO 0.000000
8 C -2.212900 2.315300 1.562100 C 7 XO 0.000000
9 C 2.936400 -0.648600 0.163300 C 8 XO 0.000000
10 C 1.081300 0.073400 -1.345600 C 9 XO 0.000000
11 C 3.943800 -0.798100 1.222400 C 10 XO 0.000000
12 C -1.555300 -1.821800 0.469600 C 11 XO 0.000000
13 C -0.037500 0.784400 -2.022400 C 12 XO 0.000000
14 N -1.426400 0.353800 -1.510200 N 13 XO 1.000000
15 O 4.763500 -1.708100 1.266900 O 14 XO 0.000000
16 O 3.867300 0.187900 2.151600 O 15 XO 0.000000
17 S 1.798200 0.683000 0.128600 S 16 XO 0.000000
18 Cl -2.499400 3.999300 2.006000 Cl 17 XO 0.000000
19 H -2.112700 -0.784800 2.931700 H 18 XO 0.000000
20 H -2.492700 1.574900 3.575400 H 19 XO 0.000000
21 H 3.370800 -2.380300 -1.076700 H 20 XO 0.000000
22 H 1.420800 -1.613500 -2.679600 H 21 XO 0.000000
23 H -1.902300 2.781400 -0.529400 H 22 XO 0.000000
24 H -2.253800 -2.156800 -0.314000 H 23 XO 0.000000
25 H -0.531900 -2.001800 0.106000 H 24 XO 0.000000
26 H -1.712400 -2.466800 1.341800 H 25 XO 0.000000
27 H -0.046000 0.558000 -3.094600 H 26 XO 0.000000
28 H 0.004000 1.871100 -1.891500 H 27 XO 0.000000
29 H -1.540400 -0.658300 -1.671900 H 28 XO 0.000000
30 H 4.566200 0.033500 2.823100 H 29 XO 0.000000
31 H -2.129800 0.803400 -2.116100 H 30 XO 0.000000

@<TRIPOS>BOND
1 1 2 ar
2 1 6 ar
3 2 8 ar
4 3 4 ar
5 3 9 ar
6 4 10 ar
7 5 7 ar
8 5 8 ar
9 6 7 ar
10 6 12 1
11 7 14 1
12 8 18 1
13 9 11 1
14 9 17 ar
15 10 13 1
16 10 17 ar
17 11 15 2
18 11 16 1
19 13 14 1
20 1 19 1
21 2 20 1
22 3 21 1
23 4 22 1
24 5 23 1
25 12 24 1
26 12 25 1
27 12 26 1
28 13 27 1
29 13 28 1
30 14 29 1
31 14 31 1
32 16 30 1

@<COSMOlogic>TOTAL_CHARGE
1.0
