# Created by COSMOvis on Mon Aug 09 22:24:23 CEST 2021
#
#

#
#

@<TRIPOS>MOLECULE
SAMPL8-22_micro002_c0
26 27
SMALL
USER_CHARGES

@<TRIPOS>ATOM
1 C 2.790700 -1.314800 0.536000 C 0 XO 0.000000
2 C 1.763500 1.239100 1.141100 C 1 XO 0.000000
3 C 3.545400 -0.430200 1.347800 C 2 XO 0.000000
4 C 3.026300 0.858100 1.653100 C 3 XO 0.000000
5 C 1.555500 -0.936200 0.038400 C 4 XO 0.000000
6 C 1.031100 0.368600 0.349000 C 5 XO 0.000000
7 C 4.835500 -0.742600 1.907500 C 6 XO 0.000000
8 C 4.876000 1.318700 2.867000 C 7 XO 0.000000
9 C 1.229800 -3.025300 -1.089100 C 8 XO 0.000000
10 C -0.763500 1.934400 0.090100 C 9 XO 0.000000
11 N 3.721400 1.758100 2.439600 N 10 XO 0.000000
12 N 5.494800 0.154600 2.674100 N 11 XO 0.000000
13 N 5.443900 -1.926000 1.699600 N 12 XO 0.000000
14 O 0.754500 -1.707300 -0.746800 O 13 XO 0.000000
15 O -0.185600 0.639900 -0.185600 O 14 XO 0.000000
16 Cl 5.801000 2.468400 3.891700 Cl 15 XO 0.000000
17 H 3.177000 -2.303500 0.295000 H 16 XO 0.000000
18 H 1.388800 2.230400 1.388900 H 17 XO 0.000000
19 H 1.374400 -3.637500 -0.186200 H 18 XO 0.000000
20 H 2.169600 -2.968200 -1.658900 H 19 XO 0.000000
21 H 0.445000 -3.464900 -1.712300 H 20 XO 0.000000
22 H -0.124500 2.739000 -0.302600 H 21 XO 0.000000
23 H -0.919700 2.070200 1.170500 H 22 XO 0.000000
24 H -1.726900 1.938200 -0.428300 H 23 XO 0.000000
25 H 6.353000 -2.099300 2.117600 H 24 XO 0.000000
26 H 5.029300 -2.662500 1.141200 H 25 XO 0.000000

@<TRIPOS>BOND
1 1 3 ar
2 1 5 ar
3 2 4 ar
4 2 6 ar
5 3 4 ar
6 3 7 ar
7 4 11 ar
8 5 6 ar
9 5 14 1
10 6 15 1
11 7 12 ar
12 7 13 1
13 8 11 ar
14 8 12 ar
15 8 16 1
16 9 14 1
17 10 15 1
18 1 17 1
19 2 18 1
20 9 19 1
21 9 20 1
22 9 21 1
23 10 22 1
24 10 23 1
25 10 24 1
26 13 25 1
27 13 26 1

@<COSMOlogic>TOTAL_CHARGE
0.0
