# Created by COSMOvis on Mon Aug 09 22:24:22 CEST 2021
#
#

#
#

@<TRIPOS>MOLECULE
SAMPL8-1_extra001_c0
31 32
SMALL
USER_CHARGES

@<TRIPOS>ATOM
1 C 0.278400 -0.379700 0.186100 C 0 XO 0.000000
2 C 1.293000 0.443600 0.684500 C 1 XO 0.000000
3 C 1.461500 0.174800 6.418100 C 2 XO 0.000000
4 C 0.058800 -1.637900 0.743700 C 3 XO 0.000000
5 C 2.649100 0.717800 6.915800 C 4 XO 0.000000
6 C 2.090000 0.011400 1.748700 C 5 XO 0.000000
7 C 1.472600 -0.613500 5.266400 C 6 XO 0.000000
8 C 3.888300 -0.324900 5.100100 C 7 XO 0.000000
9 C 0.850300 -2.096400 1.812800 C 8 XO 0.000000
10 C 3.857100 0.462600 6.257500 C 9 XO 0.000000
11 C 2.690100 -0.847800 4.628300 C 10 XO 0.000000
12 C 1.861200 -1.243100 2.296300 C 11 XO 0.000000
13 C 0.627900 -3.438200 2.410900 C 12 XO 0.000000
14 C 5.133600 1.089800 6.760600 C 13 XO 0.000000
15 N 2.717500 -1.703800 3.421200 N 14 XO 1.000000
16 O 1.287300 -3.884300 3.362700 O 15 XO 0.000000
17 O -0.353400 -4.133500 1.834800 O 16 XO 0.000000
18 F 5.318900 2.344700 6.239700 F 17 XO 0.000000
19 F 5.141800 1.228700 8.115700 F 18 XO 0.000000
20 F 6.236600 0.364700 6.424700 F 19 XO 0.000000
21 H -0.343900 -0.040100 -0.642000 H 20 XO 0.000000
22 H 1.469700 1.426600 0.247400 H 21 XO 0.000000
23 H 0.519600 0.365300 6.931700 H 22 XO 0.000000
24 H -0.730800 -2.278900 0.354500 H 23 XO 0.000000
25 H 2.631000 1.331500 7.816000 H 24 XO 0.000000
26 H 2.881500 0.649700 2.143800 H 25 XO 0.000000
27 H 0.543700 -1.033000 4.878200 H 26 XO 0.000000
28 H 4.827800 -0.532700 4.587600 H 27 XO 0.000000
29 H 3.689600 -1.808300 3.093700 H 28 XO 0.000000
30 H -0.435300 -5.001600 2.288400 H 29 XO 0.000000
31 H 2.365800 -2.692800 3.645100 H 30 XO 0.000000

@<TRIPOS>BOND
1 1 2 ar
2 1 4 ar
3 2 6 ar
4 3 5 ar
5 3 7 ar
6 4 9 ar
7 5 10 ar
8 6 12 ar
9 7 11 ar
10 8 10 ar
11 8 11 ar
12 9 12 ar
13 9 13 1
14 10 14 1
15 11 15 1
16 12 15 1
17 13 16 2
18 13 17 1
19 14 18 1
20 14 19 1
21 14 20 1
22 1 21 1
23 2 22 1
24 3 23 1
25 4 24 1
26 5 25 1
27 6 26 1
28 7 27 1
29 8 28 1
30 15 29 1
31 15 31 1
32 17 30 1

@<COSMOlogic>TOTAL_CHARGE
1.0
