# Created by COSMOvis on Mon Aug 09 22:24:20 CEST 2021
#
#

#
#

@<TRIPOS>MOLECULE
SAMPL8-12_extra007_c0
43 45
SMALL
USER_CHARGES

@<TRIPOS>ATOM
1 C 1.917900 -3.454400 6.225200 C 0 XO 0.000000
2 C 0.965200 -2.873100 5.210100 C 1 XO 0.000000
3 C -0.143800 -2.108400 5.612400 C 2 XO 0.000000
4 C -1.014400 -1.547600 4.674200 C 3 XO 0.000000
5 C -0.803200 -1.738000 3.299700 C 4 XO 0.000000
6 C 0.297900 -2.504600 2.890200 C 5 XO 0.000000
7 C 1.166700 -3.063400 3.832800 C 6 XO 0.000000
8 C -1.742200 -1.125400 2.280900 C 7 XO 0.000000
9 C -1.372900 0.283300 1.855000 C 8 XO 0.000000
10 C -0.222700 0.925700 2.276800 C 9 XO 0.000000
11 N 0.070400 2.175600 1.854100 N 10 XO 0.000000
12 C -0.747200 2.862000 0.992400 C 11 XO 0.000000
13 N -1.883200 2.279600 0.556100 N 12 XO 0.000000
14 C -2.153200 1.069900 0.980900 C 13 XO 0.000000
15 N -3.410700 0.503700 0.429100 N 14 XO 0.000000
16 C -4.597800 1.460600 0.529500 C 15 XO 0.000000
17 C -5.819600 0.790000 -0.080600 C 16 XO 0.000000
18 O -5.597700 0.436900 -1.451800 O 17 XO 0.000000
19 C -4.529100 -0.510600 -1.546000 C 18 XO 0.000000
20 C -3.219500 0.065600 -1.028000 C 19 XO 0.000000
21 N -0.428000 4.083400 0.593700 N 20 XO 2.000000
22 H 1.395000 -3.740400 7.148600 H 21 XO 0.000000
23 H 2.435000 -4.338900 5.828900 H 22 XO 0.000000
24 H 2.689700 -2.718100 6.502500 H 23 XO 0.000000
25 H -0.334700 -1.956100 6.677400 H 24 XO 0.000000
26 H -1.873300 -0.964700 5.015600 H 25 XO 0.000000
27 H 0.474000 -2.676200 1.825500 H 26 XO 0.000000
28 H 2.011900 -3.665300 3.490800 H 27 XO 0.000000
29 H -2.763000 -1.115200 2.698300 H 28 XO 0.000000
30 H -1.770300 -1.766800 1.384800 H 29 XO 0.000000
31 H 0.495400 0.472700 2.957200 H 30 XO 0.000000
32 H 0.929800 2.616100 2.191400 H 31 XO 0.000000
33 H -3.646100 -0.339000 0.980100 H 32 XO 0.000000
34 H -4.747200 1.686900 1.591000 H 33 XO 0.000000
35 H -4.309500 2.365200 -0.014400 H 34 XO 0.000000
36 H -6.652600 1.502600 -0.056500 H 35 XO 0.000000
37 H -6.106100 -0.105000 0.502000 H 36 XO 0.000000
38 H -4.400500 -0.758400 -2.606500 H 37 XO 0.000000
39 H -4.788200 -1.434900 -0.997900 H 38 XO 0.000000
40 H -2.918900 0.966400 -1.574700 H 39 XO 0.000000
41 H -2.413300 -0.677500 -1.051100 H 40 XO 0.000000
42 H 0.419400 4.553200 0.901300 H 41 XO 0.000000
43 H -1.049500 4.575300 -0.043200 H 42 XO 0.000000

@<TRIPOS>BOND
1 1 2 1
2 2 3 ar
3 2 7 ar
4 3 4 ar
5 4 5 ar
6 5 6 ar
7 5 8 1
8 6 7 ar
9 8 9 1
10 9 10 2
11 9 14 1
12 10 11 1
13 11 12 1
14 12 13 2
15 12 21 1
16 13 14 1
17 14 15 2
18 15 16 1
19 15 20 1
20 16 17 1
21 17 18 1
22 18 19 1
23 19 20 1
24 1 22 1
25 1 23 1
26 1 24 1
27 3 25 1
28 4 26 1
29 6 27 1
30 7 28 1
31 8 29 1
32 8 30 1
33 10 31 1
34 11 32 1
35 15 33 1
36 16 34 1
37 16 35 1
38 17 36 1
39 17 37 1
40 19 38 1
41 19 39 1
42 20 40 1
43 20 41 1
44 21 42 1
45 21 43 1

@<COSMOlogic>TOTAL_CHARGE
2.0
