# Created by COSMOvis on Mon Aug 09 22:24:23 CEST 2021
#
#

#
#

@<TRIPOS>MOLECULE
SAMPL8-4_extra001_c0
27 28
SMALL
USER_CHARGES

@<TRIPOS>ATOM
1 N 0.001700 -0.325200 -0.435600 N 0 XO 0.000000
2 C 1.383300 -0.258500 -0.380000 C 1 XO 0.000000
3 C 2.006300 0.852700 -1.137700 C 2 XO 0.000000
4 O 3.200200 1.127200 -1.180900 O 3 XO 0.000000
5 O 1.105500 1.598500 -1.831200 O 4 XO 0.000000
6 H 0.217100 1.191800 -1.649900 H 5 XO 0.000000
7 C -6.518400 0.949000 -0.110600 C 6 XO 0.000000
8 C -5.291400 -1.130700 0.184100 C 7 XO 0.000000
9 C -4.100000 -1.782400 0.308800 C 8 XO 0.000000
10 C -2.877400 0.348500 0.078100 C 9 XO 0.000000
11 C -5.329000 0.301200 -0.002400 C 10 XO 0.000000
12 C -2.836600 -1.086700 0.248500 C 11 XO 0.000000
13 C -4.071100 1.000800 -0.030400 C 12 XO 0.000000
14 C 2.038800 -1.239100 0.344300 C 13 XO 0.000000
15 C -0.475900 -1.357600 0.238900 C 14 XO 0.000000
16 C 3.494900 -1.438400 0.603100 C 15 XO 0.000000
17 N -7.571500 1.462700 -0.351200 N 16 XO 0.000000
18 N -1.731300 -1.824600 0.397600 N 17 XO 0.000000
19 S 0.838000 -2.336200 0.990900 S 18 XO 0.000000
20 Cl -4.098600 2.754600 -0.212700 Cl 19 XO 0.000000
21 H -6.234300 -1.675800 0.221400 H 20 XO 0.000000
22 H -4.076400 -2.863200 0.450900 H 21 XO 0.000000
23 H 3.733500 -1.254900 1.662500 H 22 XO 0.000000
24 H 3.801900 -2.468700 0.371500 H 23 XO 0.000000
25 H 4.080100 -0.742700 -0.007400 H 24 XO 0.000000
26 H -1.944500 0.905800 0.045300 H 25 XO 0.000000
27 H -8.249100 1.889000 0.289700 H 26 XO 0.000000

@<TRIPOS>BOND
1 1 2 ar
2 1 15 ar
3 2 3 1
4 2 14 ar
5 3 4 2
6 3 5 1
7 7 11 2
8 7 17 2
9 8 9 2
10 8 11 1
11 9 12 1
12 10 12 1
13 10 13 2
14 11 13 1
15 12 18 2
16 13 20 1
17 14 16 1
18 14 19 ar
19 15 18 1
20 15 19 ar
21 5 6 1
22 8 21 1
23 9 22 1
24 10 26 1
25 16 23 1
26 16 24 1
27 16 25 1
28 17 27 1

@<COSMOlogic>TOTAL_CHARGE
0.0
