# Created by COSMOvis on Mon Aug 09 22:24:23 CEST 2021
#
#

#
#

@<TRIPOS>MOLECULE
SAMPL8-6_micro001_c0
29 30
SMALL
USER_CHARGES

@<TRIPOS>ATOM
1 C 3.946100 0.703900 -0.188600 C 0 XO 0.000000
2 C 4.513000 -0.578000 -0.264400 C 1 XO 0.000000
3 C -4.229500 -0.226100 0.896700 C 2 XO 0.000000
4 C -2.950800 -0.747700 1.245600 C 3 XO 0.000000
5 C 2.261000 -1.516500 -0.128300 C 4 XO 0.000000
6 C 2.569900 0.915300 -0.091000 C 5 XO 0.000000
7 C 1.705100 -0.219700 -0.067400 C 6 XO 0.000000
8 C 3.643300 -1.662700 -0.233900 C 7 XO 0.000000
9 C -4.288100 0.281800 -0.383400 C 8 XO 0.000000
10 C -2.021500 -0.646800 0.231900 C 9 XO 0.000000
11 C -5.441000 0.926700 -1.111000 C 10 XO 0.000000
12 C 1.997700 2.306800 -0.025300 C 11 XO 0.000000
13 C -0.600200 -1.121200 0.244200 C 12 XO 0.000000
14 N 0.332100 -0.022700 -0.026600 N 13 XO 0.000000
15 O -6.537000 1.008600 -0.477700 O 14 XO -1.000000
16 O -5.213100 1.330100 -2.294900 O 15 XO 0.000000
17 S -2.730300 0.113100 -1.186300 S 16 XO 0.000000
18 Cl 4.312000 -3.312800 -0.317700 Cl 17 XO 0.000000
19 H 4.609000 1.572100 -0.207700 H 18 XO 0.000000
20 H 5.590600 -0.715200 -0.343700 H 19 XO 0.000000
21 H -5.090600 -0.212800 1.564000 H 20 XO 0.000000
22 H -2.715400 -1.188000 2.215600 H 21 XO 0.000000
23 H 1.626800 -2.400300 -0.094200 H 22 XO 0.000000
24 H 2.796900 3.057900 -0.061700 H 23 XO 0.000000
25 H 1.427300 2.475000 0.904500 H 24 XO 0.000000
26 H 1.308500 2.502600 -0.863400 H 25 XO 0.000000
27 H -0.453300 -1.897900 -0.524000 H 26 XO 0.000000
28 H -0.405800 -1.596100 1.224600 H 27 XO 0.000000
29 H 0.037500 0.870500 0.364200 H 28 XO 0.000000

@<TRIPOS>BOND
1 1 2 ar
2 1 6 ar
3 2 8 ar
4 3 4 ar
5 3 9 ar
6 4 10 ar
7 5 7 ar
8 5 8 ar
9 6 7 ar
10 6 12 1
11 7 14 1
12 8 18 1
13 9 11 1
14 9 17 ar
15 10 13 1
16 10 17 ar
17 11 15 1
18 11 16 2
19 13 14 1
20 1 19 1
21 2 20 1
22 3 21 1
23 4 22 1
24 5 23 1
25 12 24 1
26 12 25 1
27 12 26 1
28 13 27 1
29 13 28 1
30 14 29 1

@<COSMOlogic>TOTAL_CHARGE
-1.0
