# Created by COSMOvis on Mon Aug 09 22:24:21 CEST 2021
#
#

#
#

@<TRIPOS>MOLECULE
SAMPL8-14_micro017_c0
43 44
SMALL
USER_CHARGES

@<TRIPOS>ATOM
1 C 1.854500 -2.321700 -1.987500 C 0 XO 0.000000
2 C 1.006500 -1.166000 -1.511600 C 1 XO 0.000000
3 C 1.361100 0.158100 -1.793900 C 2 XO 0.000000
4 C 0.577900 1.232600 -1.356800 C 3 XO 0.000000
5 C -0.584300 0.948400 -0.624800 C 4 XO 0.000000
6 C -0.997700 -0.356800 -0.308500 C 5 XO 0.000000
7 C -0.168500 -1.409600 -0.767500 C 6 XO 0.000000
8 O -0.530800 -2.711200 -0.478300 O 7 XO 0.000000
9 C -2.287000 -0.617800 0.498900 C 8 XO 0.000000
10 C -3.276600 -1.468700 -0.335600 C 9 XO 0.000000
11 C -3.009500 0.692300 0.871500 C 10 XO 0.000000
12 C -1.945900 -1.349400 1.820900 C 11 XO 0.000000
13 C 0.990300 2.661900 -1.634900 C 12 XO 0.000000
14 C 1.899400 3.281800 -0.596200 C 13 XO 0.000000
15 C 2.293100 2.629100 0.526200 C 14 XO 0.000000
16 N 3.127000 3.233600 1.447700 N 15 XO 0.000000
17 C 3.575800 4.512300 1.227700 C 16 XO 0.000000
18 N 3.229700 5.213400 0.169200 N 17 XO 0.000000
19 C 2.385900 4.655200 -0.796500 C 18 XO 0.000000
20 N 2.025200 5.328200 -1.859100 N 19 XO 0.000000
21 N 4.459300 5.023500 2.137500 N 20 XO 0.000000
22 H 2.235800 -2.929300 -1.149000 H 21 XO 0.000000
23 H 2.725500 -1.956200 -2.545600 H 22 XO 0.000000
24 H 1.296700 -2.998100 -2.657400 H 23 XO 0.000000
25 H 2.270900 0.347600 -2.370700 H 24 XO 0.000000
26 H -1.191500 1.789400 -0.289500 H 25 XO 0.000000
27 H 0.134300 -3.316900 -0.857500 H 26 XO 0.000000
28 H -4.196700 -1.643100 0.244100 H 27 XO 0.000000
29 H -2.849500 -2.441700 -0.606000 H 28 XO 0.000000
30 H -3.555000 -0.941500 -1.261100 H 29 XO 0.000000
31 H -3.316800 1.263600 -0.017400 H 30 XO 0.000000
32 H -2.387000 1.342800 1.503800 H 31 XO 0.000000
33 H -3.919100 0.447300 1.439800 H 32 XO 0.000000
34 H -1.270700 -0.737200 2.438100 H 33 XO 0.000000
35 H -1.465600 -2.318100 1.637300 H 34 XO 0.000000
36 H -2.867500 -1.524000 2.398200 H 35 XO 0.000000
37 H 1.498400 2.727600 -2.611700 H 36 XO 0.000000
38 H 0.097000 3.302000 -1.733800 H 37 XO 0.000000
39 H 1.987100 1.613800 0.769600 H 38 XO 0.000000
40 H 3.425700 2.714400 2.269800 H 39 XO 0.000000
41 H 2.470200 6.256600 -1.808800 H 40 XO 0.000000
42 H 4.473400 4.635900 3.077400 H 41 XO 0.000000
43 H 4.604400 6.028400 2.087600 H 42 XO 0.000000

@<TRIPOS>BOND
1 1 2 1
2 2 3 ar
3 2 7 ar
4 3 4 ar
5 4 5 ar
6 4 13 1
7 5 6 ar
8 6 7 ar
9 6 9 1
10 7 8 1
11 9 10 1
12 9 11 1
13 9 12 1
14 13 14 1
15 14 15 2
16 14 19 1
17 15 16 1
18 16 17 1
19 17 18 2
20 17 21 1
21 18 19 1
22 19 20 2
23 1 22 1
24 1 23 1
25 1 24 1
26 3 25 1
27 5 26 1
28 8 27 1
29 10 28 1
30 10 29 1
31 10 30 1
32 11 31 1
33 11 32 1
34 11 33 1
35 12 34 1
36 12 35 1
37 12 36 1
38 13 37 1
39 13 38 1
40 15 39 1
41 16 40 1
42 20 41 1
43 21 42 1
44 21 43 1

@<COSMOlogic>TOTAL_CHARGE
0.0
