# Created by COSMOvis on Mon Aug 09 22:24:22 CEST 2021
#
#

#
#

@<TRIPOS>MOLECULE
SAMPL8-22_extra001_c0
27 28
SMALL
USER_CHARGES

@<TRIPOS>ATOM
1 C 2.494000 -1.353400 0.874300 C 0 XO 0.000000
2 C 1.685500 1.321500 1.297600 C 1 XO 0.000000
3 C 3.385400 -0.443200 1.491000 C 2 XO 0.000000
4 C 2.959700 0.890400 1.691300 C 3 XO 0.000000
5 C 1.230600 -0.946600 0.476900 C 4 XO 0.000000
6 C 0.817300 0.418100 0.693900 C 5 XO 0.000000
7 C 4.715000 -0.780100 1.935000 C 6 XO 0.000000
8 C 5.064000 1.358700 2.674300 C 7 XO 0.000000
9 C 0.663400 -3.112900 -0.370900 C 8 XO 0.000000
10 C -0.906300 2.066600 0.464100 C 9 XO 0.000000
11 N 3.843300 1.775400 2.295900 N 10 XO 0.000000
12 N 5.524000 0.149600 2.522800 N 11 XO 0.000000
13 N 5.230200 -2.000600 1.802000 N 12 XO 1.000000
14 O 0.306700 -1.734800 -0.119500 O 13 XO 0.000000
15 O -0.426600 0.712900 0.275500 O 14 XO 0.000000
16 Cl 6.077100 2.564600 3.421700 Cl 15 XO 0.000000
17 H 2.796500 -2.384800 0.707500 H 16 XO 0.000000
18 H 1.392100 2.355300 1.468700 H 17 XO 0.000000
19 H -0.213300 -3.554700 -0.853000 H 18 XO 0.000000
20 H 0.876000 -3.638000 0.572100 H 19 XO 0.000000
21 H 1.531200 -3.173000 -1.043900 H 20 XO 0.000000
22 H -1.921800 2.069700 0.058700 H 21 XO 0.000000
23 H -0.278100 2.778700 -0.089300 H 22 XO 0.000000
24 H -0.927200 2.322600 1.532900 H 23 XO 0.000000
25 H 6.174700 -2.185100 2.131600 H 24 XO 0.000000
26 H 4.718500 -2.768100 1.379200 H 25 XO 0.000000
27 H 3.560600 2.744200 2.452100 H 26 XO 0.000000

@<TRIPOS>BOND
1 1 3 ar
2 1 5 ar
3 2 4 ar
4 2 6 ar
5 3 4 ar
6 3 7 1
7 4 11 1
8 5 6 ar
9 5 14 1
10 6 15 1
11 7 12 1
12 7 13 2
13 8 11 1
14 8 12 2
15 8 16 1
16 9 14 1
17 10 15 1
18 1 17 1
19 2 18 1
20 9 19 1
21 9 20 1
22 9 21 1
23 10 22 1
24 10 23 1
25 10 24 1
26 11 27 1
27 13 25 1
28 13 26 1

@<COSMOlogic>TOTAL_CHARGE
1.0
