# Created by COSMOvis on Mon Aug 09 22:24:21 CEST 2021
#
#

#
#

@<TRIPOS>MOLECULE
SAMPL8-16_micro008_c0
36 37
SMALL
USER_CHARGES

@<TRIPOS>ATOM
1 C 6.533700 -3.024500 -0.014500 C 0 XO 0.000000
2 C 6.428600 -3.942100 -1.231000 C 1 XO 0.000000
3 C 5.825500 -3.254000 -2.454100 C 2 XO 0.000000
4 C 7.782800 -4.566000 -1.565200 C 3 XO 0.000000
5 O 5.607200 -5.156700 -0.878700 O 4 XO 0.000000
6 C 4.321200 -5.108600 -0.507000 C 5 XO 0.000000
7 N 3.594800 -4.059100 -0.394600 N 6 XO 0.000000
8 C 2.218800 -4.269800 0.032300 C 7 XO 0.000000
9 C 1.552100 -2.939300 0.132100 C 8 XO 0.000000
10 N 0.287500 -2.681400 0.507100 N 9 XO 1.000000
11 C 0.058400 -1.304700 0.465300 C 10 XO 0.000000
12 C -1.068100 -0.533500 0.756000 C 11 XO 0.000000
13 C -0.932300 0.847100 0.600300 C 12 XO 0.000000
14 C 0.278900 1.432300 0.171900 C 13 XO 0.000000
15 C 1.405600 0.661300 -0.118800 C 14 XO 0.000000
16 C 1.270400 -0.719400 0.037000 C 15 XO 0.000000
17 N 2.156300 -1.778200 -0.153400 N 16 XO 0.000000
18 O 3.846100 -6.354500 -0.249800 O 17 XO 0.000000
19 H 5.560900 -2.597000 0.253000 H 18 XO 0.000000
20 H 7.225700 -2.203000 -0.247800 H 19 XO 0.000000
21 H 6.933500 -3.573600 0.849900 H 20 XO 0.000000
22 H 4.836800 -2.836000 -2.233700 H 21 XO 0.000000
23 H 5.737000 -3.961600 -3.290600 H 22 XO 0.000000
24 H 6.490600 -2.436100 -2.766500 H 23 XO 0.000000
25 H 8.191100 -5.101900 -0.697000 H 24 XO 0.000000
26 H 8.489500 -3.773900 -1.847500 H 25 XO 0.000000
27 H 7.692400 -5.266800 -2.406700 H 26 XO 0.000000
28 H 1.639300 -4.891400 -0.674400 H 27 XO 0.000000
29 H 2.142300 -4.767100 1.016300 H 28 XO 0.000000
30 H -0.389800 -3.391600 0.779600 H 29 XO 0.000000
31 H -2.002300 -0.986400 1.086800 H 30 XO 0.000000
32 H -1.785700 1.490800 0.815800 H 31 XO 0.000000
33 H 0.336400 2.516000 0.065200 H 32 XO 0.000000
34 H 2.341600 1.110300 -0.449400 H 33 XO 0.000000
35 H 3.130300 -1.755900 -0.458800 H 34 XO 0.000000
36 H 4.564400 -7.005600 -0.389500 H 35 XO 0.000000

@<TRIPOS>BOND
1 1 2 1
2 2 3 1
3 2 4 1
4 2 5 1
5 5 6 1
6 6 7 2
7 6 18 1
8 7 8 1
9 8 9 1
10 9 10 2
11 9 17 1
12 10 11 1
13 11 12 ar
14 11 16 ar
15 12 13 ar
16 13 14 ar
17 14 15 ar
18 15 16 ar
19 16 17 1
20 1 19 1
21 1 20 1
22 1 21 1
23 3 22 1
24 3 23 1
25 3 24 1
26 4 25 1
27 4 26 1
28 4 27 1
29 8 28 1
30 8 29 1
31 10 30 1
32 12 31 1
33 13 32 1
34 14 33 1
35 15 34 1
36 17 35 1
37 18 36 1

@<COSMOlogic>TOTAL_CHARGE
1.0
