# Created by COSMOvis on Mon Aug 09 22:24:21 CEST 2021
#
#

#
#

@<TRIPOS>MOLECULE
SAMPL8-17_micro001_c0
37 39
SMALL
USER_CHARGES

@<TRIPOS>ATOM
1 C -0.707200 2.764000 -3.526000 C 0 XO 0.000000
2 C 0.420900 2.078300 -4.012300 C 1 XO 0.000000
3 C -0.357200 -0.026400 -2.991700 C 2 XO 0.000000
4 C -1.665400 2.066500 -2.777300 C 3 XO 0.000000
5 C -1.463100 0.673400 -2.512600 C 4 XO 0.000000
6 C 0.569800 0.715000 -3.743300 C 5 XO 0.000000
7 C -3.406100 1.411000 -1.624800 C 6 XO 0.000000
8 C -3.087000 -2.944900 0.270700 C 7 XO 0.000000
9 C -0.959000 -1.613800 0.180700 C 8 XO 0.000000
10 C -2.502400 -3.654600 1.491100 C 9 XO 0.000000
11 C -0.498800 -2.396500 1.412300 C 10 XO 0.000000
12 C -2.499000 -1.528000 0.060700 C 11 XO 0.000000
13 C -2.921000 -1.078400 -1.365300 C 12 XO 0.000000
14 C -3.051800 -0.538500 1.119400 C 13 XO 0.000000
15 N -2.850300 2.502300 -2.223700 N 14 XO 0.000000
16 N -2.562200 0.278400 -1.764800 N 15 XO 0.000000
17 N -4.566100 1.304200 -0.989600 N 16 XO -1.000000
18 O -1.063100 -3.721700 1.442100 O 17 XO 0.000000
19 O -4.464600 -0.357600 1.065700 O 18 XO 0.000000
20 Br 2.134200 -0.207900 -4.431400 Br 19 XO 0.000000
21 H -0.835500 3.826800 -3.741400 H 20 XO 0.000000
22 H 1.172000 2.609800 -4.596700 H 21 XO 0.000000
23 H -0.207000 -1.087400 -2.796500 H 22 XO 0.000000
24 H -2.886100 -3.561100 -0.622400 H 23 XO 0.000000
25 H -4.181200 -2.873900 0.381100 H 24 XO 0.000000
26 H -0.513900 -0.605500 0.205300 H 25 XO 0.000000
27 H -0.558400 -2.123000 -0.711200 H 26 XO 0.000000
28 H -2.808600 -3.149500 2.427300 H 27 XO 0.000000
29 H -2.851800 -4.695100 1.539600 H 28 XO 0.000000
30 H 0.591200 -2.532000 1.398900 H 29 XO 0.000000
31 H -0.764000 -1.867100 2.347400 H 30 XO 0.000000
32 H -4.016100 -1.153400 -1.445500 H 31 XO 0.000000
33 H -2.487000 -1.775200 -2.099800 H 32 XO 0.000000
34 H -2.532200 0.430800 0.988000 H 33 XO 0.000000
35 H -2.800600 -0.898400 2.128900 H 34 XO 0.000000
36 H -5.025600 2.219500 -0.980500 H 35 XO 0.000000
37 H -4.617000 0.289100 0.270400 H 36 XO 0.000000

@<TRIPOS>BOND
1 1 2 ar
2 1 4 ar
3 2 6 ar
4 3 5 ar
5 3 6 ar
6 4 5 ar
7 4 15 ar
8 5 16 ar
9 6 20 1
10 7 15 ar
11 7 16 ar
12 7 17 1
13 8 10 1
14 8 12 1
15 9 11 1
16 9 12 1
17 10 18 1
18 11 18 1
19 12 13 1
20 12 14 1
21 13 16 1
22 14 19 1
23 1 21 1
24 2 22 1
25 3 23 1
26 8 24 1
27 8 25 1
28 9 26 1
29 9 27 1
30 10 28 1
31 10 29 1
32 11 30 1
33 11 31 1
34 13 32 1
35 13 33 1
36 14 34 1
37 14 35 1
38 17 36 1
39 19 37 1

@<COSMOlogic>TOTAL_CHARGE
-1.0
