# Created by COSMOvis on Mon Aug 09 22:24:20 CEST 2021
#
#

#
#

@<TRIPOS>MOLECULE
SAMPL8-14_extra010_c0
44 45
SMALL
USER_CHARGES

@<TRIPOS>ATOM
1 C 2.892100 -3.610000 -0.797000 C 0 XO 0.000000
2 C 2.249800 -2.244600 -0.743900 C 1 XO 0.000000
3 C 0.993300 -2.012300 -1.313400 C 2 XO 0.000000
4 C 0.396600 -0.748400 -1.259400 C 3 XO 0.000000
5 C 1.086000 0.290700 -0.618400 C 4 XO 0.000000
6 C 2.348600 0.122700 -0.027400 C 5 XO 0.000000
7 C 2.915600 -1.173300 -0.108600 C 6 XO 0.000000
8 O 4.153700 -1.386700 0.459700 O 7 XO 0.000000
9 C 3.068400 1.293900 0.673800 C 8 XO 0.000000
10 C 2.239900 2.593600 0.620800 C 9 XO 0.000000
11 C 3.304000 0.956100 2.167400 C 10 XO 0.000000
12 C 4.421200 1.580400 -0.024100 C 11 XO 0.000000
13 C -0.953700 -0.497300 -1.897100 C 12 XO 0.000000
14 C -0.891200 -0.055600 -3.347600 C 13 XO 0.000000
15 C 0.273800 0.085600 -4.051700 C 14 XO 0.000000
16 N 0.306500 0.482900 -5.353100 N 15 XO 0.000000
17 C -0.829100 0.788500 -6.099400 C 16 XO 0.000000
18 N -0.892900 1.171800 -7.322200 N 17 XO 0.000000
19 N -2.010900 0.636900 -5.362300 N 18 XO 0.000000
20 C -2.096400 0.242100 -4.064000 C 19 XO 0.000000
21 N -3.299000 0.147500 -3.506300 N 20 XO 1.000000
22 H 0.040700 1.241100 -7.740000 H 21 XO 0.000000
23 H 3.856600 -3.592800 -1.332100 H 22 XO 0.000000
24 H 3.080200 -4.018700 0.210500 H 23 XO 0.000000
25 H 2.242000 -4.322000 -1.320400 H 24 XO 0.000000
26 H 0.474400 -2.841200 -1.802500 H 25 XO 0.000000
27 H 0.609600 1.270300 -0.577700 H 26 XO 0.000000
28 H 4.409800 -2.319100 0.324500 H 27 XO 0.000000
29 H 2.057100 2.925400 -0.412100 H 28 XO 0.000000
30 H 1.269800 2.488200 1.129200 H 29 XO 0.000000
31 H 2.798100 3.391300 1.132700 H 30 XO 0.000000
32 H 3.925800 0.061300 2.289200 H 31 XO 0.000000
33 H 3.809700 1.799500 2.662900 H 32 XO 0.000000
34 H 2.345300 0.787700 2.681400 H 33 XO 0.000000
35 H 5.088700 0.711300 0.010000 H 34 XO 0.000000
36 H 4.262500 1.856600 -1.077900 H 35 XO 0.000000
37 H 4.924100 2.423400 0.474900 H 36 XO 0.000000
38 H -1.562300 -1.415400 -1.832800 H 37 XO 0.000000
39 H -1.489500 0.272900 -1.316300 H 38 XO 0.000000
40 H 1.243700 -0.115900 -3.600400 H 39 XO 0.000000
41 H 1.207600 0.568400 -5.820000 H 40 XO 0.000000
42 H -2.864200 0.852600 -5.880000 H 41 XO 0.000000
43 H -4.152700 0.360800 -4.016500 H 42 XO 0.000000
44 H -3.400000 -0.144100 -2.538900 H 43 XO 0.000000

@<TRIPOS>BOND
1 1 2 1
2 2 3 ar
3 2 7 ar
4 3 4 ar
5 4 5 ar
6 4 13 1
7 5 6 ar
8 6 7 ar
9 6 9 1
10 7 8 1
11 9 10 1
12 9 11 1
13 9 12 1
14 13 14 1
15 14 15 ar
16 14 20 ar
17 15 16 ar
18 16 17 ar
19 17 18 2
20 17 19 ar
21 19 20 ar
22 20 21 2
23 1 23 1
24 1 24 1
25 1 25 1
26 3 26 1
27 5 27 1
28 8 28 1
29 10 29 1
30 10 30 1
31 10 31 1
32 11 32 1
33 11 33 1
34 11 34 1
35 12 35 1
36 12 36 1
37 12 37 1
38 13 38 1
39 13 39 1
40 15 40 1
41 16 41 1
42 18 22 1
43 19 42 1
44 21 43 1
45 21 44 1

@<COSMOlogic>TOTAL_CHARGE
1.0
