# Created by COSMOvis on Mon Aug 09 22:24:22 CEST 2021
#
#

#
#

@<TRIPOS>MOLECULE
SAMPL8-19_micro022_c0
47 50
SMALL
USER_CHARGES

@<TRIPOS>ATOM
1 C -1.518600 -1.272600 -0.275400 C 0 XO 0.000000
2 N -0.229000 -1.932500 -0.119800 N 1 XO 0.000000
3 C 0.983700 -1.532400 -0.692500 C 2 XO 0.000000
4 C 1.308300 -0.477200 -1.543900 C 3 XO 0.000000
5 C 2.647800 -0.368800 -1.948600 C 4 XO 0.000000
6 C 3.622000 -1.282200 -1.513400 C 5 XO 0.000000
7 C 3.295600 -2.343300 -0.655100 C 6 XO 0.000000
8 C 1.965900 -2.448400 -0.254900 C 7 XO 0.000000
9 N 1.313000 -3.354900 0.575200 N 8 XO 0.000000
10 C -0.022600 -3.046900 0.663200 C 9 XO 0.000000
11 C -1.003700 -3.693100 1.418000 C 10 XO 0.000000
12 S -0.675500 -5.261100 2.124700 S 11 XO 0.000000
13 C -0.410800 -4.825200 3.836100 C 12 XO 0.000000
14 N -0.135400 -5.743900 4.770800 N 13 XO 1.000000
15 C 0.061400 -5.465300 6.157200 C 14 XO 0.000000
16 O 0.306600 -6.387200 6.930100 O 15 XO 0.000000
17 C -0.055200 -4.050700 6.507300 C 16 XO 0.000000
18 C -0.336200 -3.151600 5.524200 C 17 XO 0.000000
19 N -0.510600 -3.552400 4.217000 N 18 XO 0.000000
20 C 0.146100 -3.690100 7.959200 C 19 XO 0.000000
21 C 0.020300 -2.223500 8.280500 C 20 XO 0.000000
22 C -1.193700 -1.638900 8.651300 C 21 XO 0.000000
23 N -1.321100 -0.333200 8.947200 N 22 XO 0.000000
24 C -0.199100 0.394200 8.867200 C 23 XO 0.000000
25 N 1.030700 -0.046600 8.540100 N 24 XO 0.000000
26 C 1.119400 -1.350500 8.251100 C 25 XO 0.000000
27 O -0.242100 1.713800 9.139000 O 26 XO 0.000000
28 C -1.527100 2.282200 9.502800 C 27 XO 0.000000
29 H -1.844600 -0.827600 0.675000 H 28 XO 0.000000
30 H -2.273300 -1.991000 -0.622500 H 29 XO 0.000000
31 H -1.420200 -0.480400 -1.023600 H 30 XO 0.000000
32 H 0.559700 0.237200 -1.886500 H 31 XO 0.000000
33 H 2.934300 0.445800 -2.615100 H 32 XO 0.000000
34 H 4.654200 -1.167200 -1.846900 H 33 XO 0.000000
35 H 4.048900 -3.053900 -0.314100 H 34 XO 0.000000
36 H 1.737100 -4.158100 1.030800 H 35 XO 0.000000
37 H -2.048500 -3.413100 1.311500 H 36 XO 0.000000
38 H -0.053100 -6.727200 4.496500 H 37 XO 0.000000
39 H -0.441700 -2.082000 5.693400 H 38 XO 0.000000
40 H -0.737300 -2.888200 3.453000 H 39 XO 0.000000
41 H 1.138500 -4.058200 8.266700 H 40 XO 0.000000
42 H -0.577000 -4.268600 8.556800 H 41 XO 0.000000
43 H -2.105500 -2.239400 8.724900 H 42 XO 0.000000
44 H 2.116600 -1.719800 7.992700 H 43 XO 0.000000
45 H -1.912400 1.812900 10.416700 H 44 XO 0.000000
46 H -2.250400 2.154600 8.687400 H 45 XO 0.000000
47 H -1.324300 3.343900 9.672800 H 46 XO 0.000000

@<TRIPOS>BOND
1 1 2 1
2 2 3 1
3 2 10 1
4 3 4 ar
5 3 8 ar
6 4 5 ar
7 5 6 ar
8 6 7 ar
9 7 8 ar
10 8 9 1
11 9 10 1
12 10 11 2
13 11 12 1
14 12 13 1
15 13 14 2
16 13 19 1
17 14 15 1
18 15 16 2
19 15 17 1
20 17 18 2
21 17 20 1
22 18 19 1
23 20 21 1
24 21 22 ar
25 21 26 ar
26 22 23 ar
27 23 24 ar
28 24 25 ar
29 24 27 1
30 25 26 ar
31 27 28 1
32 1 29 1
33 1 30 1
34 1 31 1
35 4 32 1
36 5 33 1
37 6 34 1
38 7 35 1
39 9 36 1
40 11 37 1
41 14 38 1
42 18 39 1
43 19 40 1
44 20 41 1
45 20 42 1
46 22 43 1
47 26 44 1
48 28 45 1
49 28 46 1
50 28 47 1

@<COSMOlogic>TOTAL_CHARGE
1.0
