# Created by COSMOvis on Mon Aug 09 22:24:23 CEST 2021
#
#

#
#

@<TRIPOS>MOLECULE
SAMPL8-4_extra002_c0
27 28
SMALL
USER_CHARGES

@<TRIPOS>ATOM
1 N 0.940500 0.448200 1.076600 N 0 XO -1.000000
2 C 1.658000 0.161000 -0.071600 C 1 XO 0.000000
3 C 2.928400 0.797400 -0.128500 C 2 XO 0.000000
4 O 3.746700 0.647300 -1.136300 O 3 XO 0.000000
5 O 3.296100 1.563300 0.868300 O 4 XO 0.000000
6 H 2.530500 1.534300 1.517700 H 5 XO 0.000000
7 C -6.467700 -1.762300 2.303000 C 6 XO 0.000000
8 C -4.281400 -1.417800 3.378900 C 7 XO 0.000000
9 C -2.957600 -1.027900 3.325200 C 8 XO 0.000000
10 C -3.215600 -0.455500 0.971100 C 9 XO 0.000000
11 C -5.114600 -1.349700 2.231600 C 10 XO 0.000000
12 C -2.370100 -0.558000 2.115100 C 11 XO 0.000000
13 C -4.541300 -0.846700 1.041500 C 12 XO 0.000000
14 C 1.096100 -0.687200 -1.023100 C 13 XO 0.000000
15 C -0.233700 -0.166900 1.120800 C 14 XO 0.000000
16 C 1.650300 -1.153400 -2.328200 C 15 XO 0.000000
17 N -7.581600 -2.111200 2.392300 N 16 XO 0.000000
18 N -1.057200 -0.182700 2.143500 N 17 XO 0.000000
19 S -0.468000 -1.179200 -0.465400 S 18 XO 1.000000
20 Cl -5.551900 -0.689500 -0.402700 Cl 19 XO 0.000000
21 H -4.704200 -1.791300 4.312100 H 20 XO 0.000000
22 H -2.331600 -1.087400 4.216100 H 21 XO 0.000000
23 H 0.920800 -1.760300 -2.876200 H 22 XO 0.000000
24 H 1.937700 -0.298000 -2.956700 H 23 XO 0.000000
25 H 2.555300 -1.759600 -2.169400 H 24 XO 0.000000
26 H -2.840100 -0.027600 0.042900 H 25 XO 0.000000
27 H 4.574000 1.161100 -1.000600 H 26 XO 0.000000

@<TRIPOS>BOND
1 1 2 1
2 1 15 1
3 2 3 2
4 2 14 1
5 3 4 1
6 3 5 1
7 7 11 1
8 7 17 3
9 8 9 ar
10 8 11 ar
11 9 12 ar
12 10 12 ar
13 10 13 ar
14 11 13 ar
15 12 18 1
16 13 20 1
17 14 16 1
18 14 19 2
19 15 18 2
20 15 19 1
21 4 27 1
22 5 6 1
23 8 21 1
24 9 22 1
25 10 26 1
26 16 23 1
27 16 24 1
28 16 25 1

@<COSMOlogic>TOTAL_CHARGE
0.0
