# Created by COSMOvis on Mon Aug 09 22:24:21 CEST 2021
#
#

#
#

@<TRIPOS>MOLECULE
SAMPL8-14_micro004_c0
42 43
SMALL
USER_CHARGES

@<TRIPOS>ATOM
1 C -0.298800 2.953900 -1.916500 C 0 XO 0.000000
2 C -0.428800 1.593900 -1.271700 C 1 XO 0.000000
3 C 0.665700 0.727400 -1.182600 C 2 XO 0.000000
4 C 0.550400 -0.535300 -0.591100 C 3 XO 0.000000
5 C -0.700700 -0.915000 -0.086600 C 4 XO 0.000000
6 C -1.838700 -0.090500 -0.137100 C 5 XO 0.000000
7 C -1.671400 1.176800 -0.744600 C 6 XO 0.000000
8 O -2.760400 2.025900 -0.818200 O 7 XO 0.000000
9 C -3.190900 -0.549600 0.449100 C 8 XO 0.000000
10 C -4.270900 -0.582700 -0.661000 C 9 XO 0.000000
11 C -3.107600 -1.966900 1.051700 C 10 XO 0.000000
12 C -3.629000 0.409000 1.584400 C 11 XO 0.000000
13 C 1.737600 -1.491600 -0.536700 C 12 XO 0.000000
14 C 3.015400 -0.906000 0.016200 C 13 XO 0.000000
15 C 4.106000 -0.726000 -0.778900 C 14 XO 0.000000
16 N 5.275800 -0.214600 -0.284300 N 15 XO 0.000000
17 C 5.412200 0.139100 1.071700 C 16 XO 0.000000
18 N 4.350000 -0.035400 1.896900 N 17 XO 0.000000
19 C 3.150300 -0.539800 1.442900 C 18 XO 0.000000
20 N 2.170900 -0.680800 2.322400 N 19 XO -1.000000
21 N 6.592700 0.620000 1.422900 N 20 XO 0.000000
22 H -0.965800 3.065400 -2.788400 H 21 XO 0.000000
23 H -0.535500 3.771400 -1.214200 H 22 XO 0.000000
24 H 0.727400 3.116000 -2.269500 H 23 XO 0.000000
25 H 1.629700 1.053300 -1.582800 H 24 XO 0.000000
26 H -0.785400 -1.901500 0.370600 H 25 XO 0.000000
27 H -2.485000 2.855700 -1.252300 H 26 XO 0.000000
28 H -5.230000 -0.919200 -0.237200 H 27 XO 0.000000
29 H -3.986200 -1.288800 -1.456000 H 28 XO 0.000000
30 H -4.420200 0.405600 -1.111800 H 29 XO 0.000000
31 H -2.385600 -2.022500 1.880200 H 30 XO 0.000000
32 H -4.094700 -2.241200 1.452400 H 31 XO 0.000000
33 H -2.832000 -2.721100 0.299800 H 32 XO 0.000000
34 H -4.589100 0.072300 2.005900 H 33 XO 0.000000
35 H -3.751400 1.437100 1.223300 H 34 XO 0.000000
36 H -2.885500 0.411600 2.396600 H 35 XO 0.000000
37 H 1.440800 -2.375900 0.054800 H 36 XO 0.000000
38 H 1.944200 -1.866000 -1.553900 H 37 XO 0.000000
39 H 4.114200 -0.979000 -1.840400 H 38 XO 0.000000
40 H 6.080900 -0.087000 -0.891400 H 39 XO 0.000000
41 H 1.335400 -1.028000 1.837900 H 40 XO 0.000000
42 H 6.544100 0.830400 2.427300 H 41 XO 0.000000

@<TRIPOS>BOND
1 1 2 1
2 2 3 ar
3 2 7 ar
4 3 4 ar
5 4 5 ar
6 4 13 1
7 5 6 ar
8 6 7 ar
9 6 9 1
10 7 8 1
11 9 10 1
12 9 11 1
13 9 12 1
14 13 14 1
15 14 15 2
16 14 19 1
17 15 16 1
18 16 17 1
19 17 18 1
20 17 21 2
21 18 19 2
22 19 20 1
23 1 22 1
24 1 23 1
25 1 24 1
26 3 25 1
27 5 26 1
28 8 27 1
29 10 28 1
30 10 29 1
31 10 30 1
32 11 31 1
33 11 32 1
34 11 33 1
35 12 34 1
36 12 35 1
37 12 36 1
38 13 37 1
39 13 38 1
40 15 39 1
41 16 40 1
42 20 41 1
43 21 42 1

@<COSMOlogic>TOTAL_CHARGE
-1.0
