# Created by COSMOvis on Mon Aug 09 22:24:21 CEST 2021
#
#

#
#

@<TRIPOS>MOLECULE
SAMPL8-19_micro013_c0
46 49
SMALL
USER_CHARGES

@<TRIPOS>ATOM
1 C -1.274500 -2.143100 11.727500 C 0 XO 0.000000
2 C -0.360600 -1.138500 12.118700 C 1 XO 0.000000
3 C -1.504500 -2.438200 10.383200 C 2 XO 0.000000
4 C 0.356300 -0.394700 11.178700 C 3 XO 0.000000
5 C -3.221800 -7.660500 6.401500 C 4 XO 0.000000
6 C -4.286500 -6.505600 4.636700 C 5 XO 0.000000
7 C -3.093200 -7.002100 5.168500 C 6 XO 0.000000
8 C -0.791000 -1.702700 9.424800 C 7 XO 0.000000
9 C 0.124000 -0.697000 9.832500 C 8 XO 0.000000
10 C 0.057900 -0.844200 7.620500 C 9 XO 0.000000
11 C -5.459800 -7.270300 6.427700 C 10 XO 0.000000
12 C -1.381300 -4.672000 5.693900 C 11 XO 0.000000
13 C -0.993400 -5.604100 4.778100 C 12 XO 0.000000
14 C 0.275800 -5.393100 4.072500 C 13 XO 0.000000
15 C 0.508800 -3.356900 5.207300 C 14 XO 0.000000
16 C 1.657900 0.889700 8.607500 C 15 XO 0.000000
17 C -7.822400 -6.893800 6.523700 C 16 XO 0.000000
18 C -1.771700 -6.859300 4.459900 C 17 XO 0.000000
19 C 0.352700 -0.638000 6.178800 C 18 XO 0.000000
20 N -4.389000 -7.805000 7.042900 N 19 XO 0.000000
21 N -5.476900 -6.630700 5.251200 N 20 XO 0.000000
22 N -0.813000 -1.763400 8.038300 N 21 XO 0.000000
23 N 0.962200 -4.199400 4.312200 N 22 XO 0.000000
24 N 0.652700 -0.168800 8.660100 N 23 XO 0.000000
25 N -0.624200 -3.548600 5.931900 N 24 XO 0.000000
26 O 0.736700 -6.227600 3.265800 O 25 XO 0.000000
27 O -6.611400 -7.433100 7.112800 O 26 XO 0.000000
28 S 1.523400 -1.898000 5.450200 S 27 XO 0.000000
29 H -1.812200 -2.698800 12.497300 H 28 XO 0.000000
30 H -0.210300 -0.939300 13.180800 H 29 XO 0.000000
31 H -2.212600 -3.212300 10.083700 H 30 XO 0.000000
32 H 1.061000 0.378700 11.486200 H 31 XO 0.000000
33 H -2.347000 -8.100400 6.890300 H 32 XO 0.000000
34 H -4.297300 -5.991900 3.670500 H 33 XO 0.000000
35 H -2.290100 -4.751300 6.289300 H 34 XO 0.000000
36 H 1.816000 1.201200 7.571500 H 35 XO 0.000000
37 H 1.311600 1.756400 9.184600 H 36 XO 0.000000
38 H 2.608600 0.528300 9.021100 H 37 XO 0.000000
39 H -8.613600 -7.136500 7.239600 H 38 XO 0.000000
40 H -8.024100 -7.366000 5.553500 H 39 XO 0.000000
41 H -7.740000 -5.806900 6.395700 H 40 XO 0.000000
42 H -1.131200 -7.727700 4.686800 H 41 XO 0.000000
43 H -1.928500 -6.895300 3.369400 H 42 XO 0.000000
44 H -0.571600 -0.662000 5.590500 H 43 XO 0.000000
45 H 0.852700 0.315800 5.978700 H 44 XO 0.000000
46 H -0.866400 -2.915100 6.751300 H 45 XO 0.000000

@<TRIPOS>BOND
1 1 2 ar
2 1 3 ar
3 2 4 ar
4 3 8 ar
5 4 9 ar
6 5 7 ar
7 5 20 ar
8 6 7 ar
9 6 21 ar
10 7 18 1
11 8 9 ar
12 8 22 ar
13 9 24 ar
14 10 19 1
15 10 22 ar
16 10 24 ar
17 11 20 ar
18 11 21 ar
19 11 27 1
20 12 13 2
21 12 25 1
22 13 14 1
23 13 18 1
24 14 23 1
25 14 26 2
26 15 23 2
27 15 25 1
28 15 28 1
29 16 24 1
30 17 27 1
31 19 28 1
32 1 29 1
33 2 30 1
34 3 31 1
35 4 32 1
36 5 33 1
37 6 34 1
38 12 35 1
39 16 36 1
40 16 37 1
41 16 38 1
42 17 39 1
43 17 40 1
44 17 41 1
45 18 42 1
46 18 43 1
47 19 44 1
48 19 45 1
49 25 46 1

@<COSMOlogic>TOTAL_CHARGE
0.0
