# Created by COSMOvis on Mon Aug 09 22:24:23 CEST 2021
#
#

#
#

@<TRIPOS>MOLECULE
SAMPL8-5_micro006_c0
31 32
SMALL
USER_CHARGES

@<TRIPOS>ATOM
1 C 6.479400 0.468500 0.599800 C 0 XO 0.000000
2 C 5.489000 0.633800 1.575500 C 1 XO 0.000000
3 C 4.334100 -0.148900 1.522400 C 2 XO 0.000000
4 C 4.183500 -1.065200 0.486600 C 3 XO 0.000000
5 C 5.129100 -1.228100 -0.547600 C 4 XO 0.000000
6 C 6.302300 -0.446200 -0.435600 C 5 XO 0.000000
7 C 4.995600 -2.161800 -1.667400 C 6 XO 0.000000
8 C 3.885800 -2.367200 -2.422500 C 7 XO 0.000000
9 O 3.783100 -3.179000 -3.493900 O 8 XO 0.000000
10 O 2.711800 -1.722200 -2.176000 O 9 XO 0.000000
11 N 2.999200 -1.988700 0.473200 N 10 XO 1.000000
12 C 2.114100 -1.969000 1.636800 C 11 XO 0.000000
13 C 1.000200 -1.120300 1.673400 C 12 XO 0.000000
14 C 0.151000 -1.110200 2.778800 C 13 XO 0.000000
15 C 0.423100 -1.959700 3.853300 C 14 XO 0.000000
16 C 1.525900 -2.816900 3.836100 C 15 XO 0.000000
17 C 2.366500 -2.815100 2.725400 C 16 XO 0.000000
18 Cl 3.757300 -3.888700 2.672400 Cl 17 XO 0.000000
19 Cl 0.675300 -0.060400 0.310200 Cl 18 XO 0.000000
20 H 7.393600 1.062200 0.643500 H 19 XO 0.000000
21 H 5.616100 1.354200 2.383600 H 20 XO 0.000000
22 H 3.574700 -0.055800 2.298600 H 21 XO 0.000000
23 H 7.071900 -0.559400 -1.201000 H 22 XO 0.000000
24 H 5.912800 -2.632300 -2.024500 H 23 XO 0.000000
25 H 4.626600 -3.648200 -3.650100 H 24 XO 0.000000
26 H 2.018500 -2.052400 -2.784900 H 25 XO 0.000000
27 H 3.368900 -2.952800 0.359800 H 26 XO 0.000000
28 H 2.456900 -1.811500 -0.413000 H 27 XO 0.000000
29 H -0.712000 -0.446300 2.794400 H 28 XO 0.000000
30 H -0.238600 -1.956500 4.719400 H 29 XO 0.000000
31 H 1.731800 -3.482200 4.673100 H 30 XO 0.000000

@<TRIPOS>BOND
1 1 2 ar
2 1 6 ar
3 2 3 ar
4 3 4 ar
5 4 5 ar
6 4 11 1
7 5 6 ar
8 5 7 1
9 7 8 2
10 8 9 1
11 8 10 1
12 11 12 1
13 12 13 ar
14 12 17 ar
15 13 14 ar
16 13 19 1
17 14 15 ar
18 15 16 ar
19 16 17 ar
20 17 18 1
21 1 20 1
22 2 21 1
23 3 22 1
24 6 23 1
25 7 24 1
26 9 25 1
27 10 26 1
28 11 27 1
29 11 28 1
30 14 29 1
31 15 30 1
32 16 31 1

@<COSMOlogic>TOTAL_CHARGE
1.0
