# Created by COSMOvis on Mon Aug 09 22:24:22 CEST 2021
#
#

#
#

@<TRIPOS>MOLECULE
SAMPL8-21_micro024_c0
39 40
SMALL
USER_CHARGES

@<TRIPOS>ATOM
1 C 2.700700 -0.367200 2.645800 C 0 XO 0.000000
2 O 1.822300 -1.146900 1.826500 O 1 XO 0.000000
3 C 0.918000 -0.458100 1.028100 C 2 XO 0.000000
4 C 0.835400 0.937400 0.982200 C 3 XO 0.000000
5 C -0.106700 1.574800 0.155100 C 4 XO 0.000000
6 C -0.953600 0.774300 -0.633700 C 5 XO 0.000000
7 C -0.866700 -0.624900 -0.593100 C 6 XO 0.000000
8 C 0.075000 -1.325100 0.239400 C 7 XO 0.000000
9 O 0.162100 -2.617000 0.278100 O 8 XO -1.000000
10 O -1.671500 -1.464400 -1.354500 O 9 XO 0.000000
11 C -2.612400 -0.845500 -2.237800 C 10 XO 0.000000
12 C -0.215200 3.095100 0.111600 C 11 XO 0.000000
13 C 1.063900 3.824200 -0.249600 C 12 XO 0.000000
14 C 1.758300 3.541300 -1.425900 C 13 XO 0.000000
15 N 2.895700 4.248900 -1.722600 N 14 XO 0.000000
16 C 3.415000 5.277400 -0.908300 C 15 XO 0.000000
17 N 4.495200 5.940600 -1.223100 N 16 XO 0.000000
18 N 2.730000 5.554700 0.246400 N 17 XO 0.000000
19 C 1.636100 4.864500 0.530700 C 18 XO 0.000000
20 O 0.971400 5.164100 1.678800 O 19 XO 0.000000
21 C 1.515500 6.212200 2.516000 C 20 XO 0.000000
22 N 1.338100 2.620500 -2.338800 N 21 XO 0.000000
23 H 2.141300 0.251000 3.367900 H 22 XO 0.000000
24 H 3.349100 0.287100 2.039300 H 23 XO 0.000000
25 H 3.321800 -1.088000 3.190600 H 24 XO 0.000000
26 H 1.507100 1.549600 1.586200 H 25 XO 0.000000
27 H -1.695900 1.260500 -1.270400 H 26 XO 0.000000
28 H -2.110000 -0.209800 -2.986500 H 27 XO 0.000000
29 H -3.350200 -0.237400 -1.687800 H 28 XO 0.000000
30 H -3.129700 -1.666000 -2.748900 H 29 XO 0.000000
31 H -0.554100 3.480800 1.083900 H 30 XO 0.000000
32 H -1.007700 3.361300 -0.610800 H 31 XO 0.000000
33 H 3.396800 4.027100 -2.582200 H 32 XO 0.000000
34 H 4.873700 5.602800 -2.115700 H 33 XO 0.000000
35 H 1.550200 7.166300 1.974300 H 34 XO 0.000000
36 H 2.524300 5.951900 2.861600 H 35 XO 0.000000
37 H 0.826100 6.278400 3.364100 H 36 XO 0.000000
38 H 0.716800 1.892800 -1.973900 H 37 XO 0.000000
39 H 2.002100 2.298300 -3.039500 H 38 XO 0.000000

@<TRIPOS>BOND
1 1 2 1
2 2 3 1
3 3 4 ar
4 3 8 ar
5 4 5 ar
6 5 6 ar
7 5 12 1
8 6 7 ar
9 7 8 ar
10 7 10 1
11 8 9 1
12 10 11 1
13 12 13 1
14 13 14 2
15 13 19 1
16 14 15 1
17 14 22 1
18 15 16 1
19 16 17 2
20 16 18 1
21 18 19 2
22 19 20 1
23 20 21 1
24 1 23 1
25 1 24 1
26 1 25 1
27 4 26 1
28 6 27 1
29 11 28 1
30 11 29 1
31 11 30 1
32 12 31 1
33 12 32 1
34 15 33 1
35 17 34 1
36 21 35 1
37 21 36 1
38 21 37 1
39 22 38 1
40 22 39 1

@<COSMOlogic>TOTAL_CHARGE
-1.0
