# Created by COSMOvis on Mon Aug 09 22:24:21 CEST 2021
#
#

#
#

@<TRIPOS>MOLECULE
SAMPL8-19_micro009_c0
47 50
SMALL
USER_CHARGES

@<TRIPOS>ATOM
1 C -5.735000 1.860700 -2.008400 C 0 XO 0.000000
2 C -6.717900 0.849400 -2.091300 C 1 XO 0.000000
3 C -4.511000 1.645900 -1.376200 C 2 XO 0.000000
4 C -6.515500 -0.418300 -1.545700 C 3 XO 0.000000
5 C 4.810900 1.691100 -0.759400 C 4 XO 0.000000
6 C 4.924200 1.293800 1.567600 C 5 XO 0.000000
7 C 4.131500 1.632000 0.467400 C 6 XO 0.000000
8 C -4.304600 0.376100 -0.829700 C 7 XO 0.000000
9 C -5.287600 -0.634800 -0.914400 C 8 XO 0.000000
10 C -3.527400 -1.455200 0.179600 C 9 XO 0.000000
11 C 6.763000 1.105800 0.244600 C 10 XO 0.000000
12 C 2.179900 -0.531700 0.188100 C 11 XO 0.000000
13 C 1.747100 0.730500 0.457700 C 12 XO 0.000000
14 C 0.307900 0.949200 0.634800 C 13 XO 0.000000
15 C -0.045600 -1.348200 0.225300 C 14 XO 0.000000
16 C -5.481800 -3.032000 -0.138400 C 15 XO 0.000000
17 C 8.853400 0.485900 1.232800 C 16 XO 0.000000
18 C 2.659600 1.926500 0.593500 C 17 XO 0.000000
19 C -2.590400 -2.323000 0.935400 C 18 XO 0.000000
20 N 6.118600 1.434100 -0.890700 N 19 XO 0.000000
21 N 6.239400 1.027800 1.474500 N 20 XO 0.000000
22 N -3.241600 -0.180000 -0.136300 N 21 XO 1.000000
23 N -0.540800 -0.163700 0.477500 N 22 XO 0.000000
24 N -4.762700 -1.764200 -0.277300 N 23 XO 0.000000
25 N 1.287300 -1.574200 0.086100 N 24 XO 0.000000
26 O -0.183000 2.060500 0.893700 O 25 XO 0.000000
27 O 8.074100 0.844500 0.062900 O 26 XO 0.000000
28 S -1.067800 -2.801900 -0.010600 S 27 XO 0.000000
29 H -5.940000 2.836400 -2.450000 H 28 XO 0.000000
30 H -7.660600 1.065200 -2.594800 H 29 XO 0.000000
31 H -3.753900 2.426800 -1.310400 H 30 XO 0.000000
32 H -7.277200 -1.194700 -1.611000 H 31 XO 0.000000
33 H 4.280500 1.966800 -1.676200 H 32 XO 0.000000
34 H 4.493500 1.240200 2.572100 H 33 XO 0.000000
35 H 3.224100 -0.804700 0.050600 H 34 XO 0.000000
36 H -5.746500 -3.405900 -1.134400 H 35 XO 0.000000
37 H -6.388500 -2.872800 0.457200 H 36 XO 0.000000
38 H -4.846800 -3.767000 0.362300 H 37 XO 0.000000
39 H 8.460400 -0.429200 1.693800 H 38 XO 0.000000
40 H 9.866300 0.319600 0.853800 H 39 XO 0.000000
41 H 8.847000 1.302000 1.966800 H 40 XO 0.000000
42 H 2.454600 2.400100 1.567700 H 41 XO 0.000000
43 H 2.360600 2.674000 -0.159700 H 42 XO 0.000000
44 H -2.269300 -1.827700 1.859600 H 43 XO 0.000000
45 H -3.050800 -3.278800 1.203900 H 44 XO 0.000000
46 H 1.640000 -2.519000 -0.066000 H 45 XO 0.000000
47 H -2.277500 0.182200 0.081200 H 46 XO 0.000000

@<TRIPOS>BOND
1 1 2 ar
2 1 3 ar
3 2 4 ar
4 3 8 ar
5 4 9 ar
6 5 7 ar
7 5 20 ar
8 6 7 ar
9 6 21 ar
10 7 18 1
11 8 9 ar
12 8 22 1
13 9 24 1
14 10 19 1
15 10 22 2
16 10 24 1
17 11 20 ar
18 11 21 ar
19 11 27 1
20 12 13 2
21 12 25 1
22 13 14 1
23 13 18 1
24 14 23 1
25 14 26 2
26 15 23 2
27 15 25 1
28 15 28 1
29 16 24 1
30 17 27 1
31 19 28 1
32 1 29 1
33 2 30 1
34 3 31 1
35 4 32 1
36 5 33 1
37 6 34 1
38 12 35 1
39 16 36 1
40 16 37 1
41 16 38 1
42 17 39 1
43 17 40 1
44 17 41 1
45 18 42 1
46 18 43 1
47 19 44 1
48 19 45 1
49 22 47 1
50 25 46 1

@<COSMOlogic>TOTAL_CHARGE
1.0
