# Created by COSMOvis on Mon Aug 09 22:24:23 CEST 2021
#
#

#
#

@<TRIPOS>MOLECULE
SAMPL8-7_micro002_c0
36 38
SMALL
USER_CHARGES

@<TRIPOS>ATOM
1 C 2.407400 -3.633200 -3.547400 C 0 XO 0.000000
2 C 1.272500 -4.429100 -3.350000 C 1 XO 0.000000
3 C -0.038400 -2.499800 -2.556800 C 2 XO 0.000000
4 C 2.299000 -2.280100 -3.244800 C 3 XO 0.000000
5 C 1.098900 -1.722100 -2.761500 C 4 XO 0.000000
6 C 0.088000 -3.858400 -2.863100 C 5 XO 0.000000
7 C 2.625700 -0.082500 -2.916000 C 6 XO 0.000000
8 C -1.325300 2.387800 -2.016700 C 7 XO 0.000000
9 C -0.604300 1.246500 -4.137800 C 8 XO 0.000000
10 C -2.025000 3.425800 -2.896800 C 9 XO 0.000000
11 C -1.352700 2.345500 -4.893000 C 10 XO 0.000000
12 C -0.145100 1.729200 -2.755000 C 11 XO 0.000000
13 C 0.416500 0.582500 -1.882900 C 12 XO 0.000000
14 N 3.215700 -1.232200 -3.323100 N 13 XO 0.000000
15 N 1.330500 -0.349500 -2.563900 N 14 XO 0.000000
16 N 3.199800 1.114700 -2.825300 N 15 XO 1.000000
17 O -2.471500 2.847900 -4.136100 O 16 XO 0.000000
18 O 0.908000 2.717900 -2.983600 O 17 XO 0.000000
19 Br -1.444400 -4.996300 -2.602900 Br 18 XO 0.000000
20 H 3.335000 -4.064500 -3.922200 H 19 XO 0.000000
21 H 1.316100 -5.493700 -3.574500 H 20 XO 0.000000
22 H -0.971800 -2.085200 -2.180600 H 21 XO 0.000000
23 H -0.972700 2.860900 -1.084800 H 22 XO 0.000000
24 H -2.049400 1.609600 -1.733500 H 23 XO 0.000000
25 H -1.266000 0.376200 -4.007800 H 24 XO 0.000000
26 H 0.261600 0.919100 -4.733800 H 25 XO 0.000000
27 H -2.921300 3.810200 -2.393600 H 26 XO 0.000000
28 H -1.352600 4.278100 -3.108300 H 27 XO 0.000000
29 H -0.667100 3.178300 -5.132300 H 28 XO 0.000000
30 H -1.769000 1.953000 -5.829600 H 29 XO 0.000000
31 H -0.410600 -0.026500 -1.499200 H 30 XO 0.000000
32 H 0.940700 1.007800 -1.014000 H 31 XO 0.000000
33 H 4.145900 1.235000 -3.177300 H 32 XO 0.000000
34 H 2.563900 1.930600 -2.846800 H 33 XO 0.000000
35 H 0.896400 3.352200 -2.241100 H 34 XO 0.000000
36 H 4.164800 -1.290800 -3.684800 H 35 XO 0.000000

@<TRIPOS>BOND
1 1 2 ar
2 1 4 ar
3 2 6 ar
4 3 5 ar
5 3 6 ar
6 4 5 ar
7 4 14 1
8 5 15 1
9 6 19 1
10 7 14 1
11 7 15 1
12 7 16 2
13 8 10 1
14 8 12 1
15 9 11 1
16 9 12 1
17 10 17 1
18 11 17 1
19 12 13 1
20 12 18 1
21 13 15 1
22 1 20 1
23 2 21 1
24 3 22 1
25 8 23 1
26 8 24 1
27 9 25 1
28 9 26 1
29 10 27 1
30 10 28 1
31 11 29 1
32 11 30 1
33 13 31 1
34 13 32 1
35 14 36 1
36 16 33 1
37 16 34 1
38 18 35 1

@<COSMOlogic>TOTAL_CHARGE
1.0
