# Created by COSMOvis on Mon Aug 09 22:24:23 CEST 2021
#
#

#
#

@<TRIPOS>MOLECULE
SAMPL8-23_micro002_c0
17 18
SMALL
USER_CHARGES

@<TRIPOS>ATOM
1 C 3.552200 0.145900 0.139300 C 0 XO 0.000000
2 C 2.204500 0.044500 0.248800 C 1 XO 0.000000
3 N 1.264400 0.274100 -0.746400 N 2 XO 0.000000
4 C -0.081300 0.111500 -0.414900 C 3 XO 0.000000
5 C -1.173700 0.293600 -1.263400 C 4 XO 0.000000
6 C -2.517900 0.090400 -0.786100 C 5 XO 0.000000
7 C -2.645300 -0.304600 0.595800 C 6 XO 0.000000
8 C -1.539300 -0.482900 1.434400 C 7 XO 0.000000
9 C -0.254400 -0.275600 0.930200 C 8 XO 0.000000
10 S 1.332200 -0.424900 1.755500 S 9 XO 0.000000
11 O -3.549800 0.253900 -1.555700 O 10 XO -1.000000
12 H 4.008100 0.436300 -0.807400 H 11 XO 0.000000
13 H 4.200000 -0.058400 0.988700 H 12 XO 0.000000
14 H 1.561400 0.550800 -1.678500 H 13 XO 0.000000
15 H -1.023800 0.594100 -2.303800 H 14 XO 0.000000
16 H -3.652800 -0.466200 0.988000 H 15 XO 0.000000
17 H -1.684100 -0.782800 2.475300 H 16 XO 0.000000

@<TRIPOS>BOND
1 1 2 2
2 2 3 1
3 2 10 1
4 3 4 1
5 4 5 ar
6 4 9 ar
7 5 6 ar
8 6 7 ar
9 6 11 1
10 7 8 ar
11 8 9 ar
12 9 10 1
13 1 12 1
14 1 13 1
15 3 14 1
16 5 15 1
17 7 16 1
18 8 17 1

@<COSMOlogic>TOTAL_CHARGE
-1.0
