# Created by COSMOvis on Mon Aug 09 22:24:20 CEST 2021
#
#

#
#

@<TRIPOS>MOLECULE
SAMPL8-11_micro001_c0
43 45
SMALL
USER_CHARGES

@<TRIPOS>ATOM
1 C 3.621800 -1.203300 -2.971000 C 0 XO 0.000000
2 C 3.032100 -0.016900 -0.522300 C 1 XO 0.000000
3 C 2.055000 0.057200 -1.567900 C 2 XO 0.000000
4 C 2.428900 -0.501100 -2.796800 C 3 XO 0.000000
5 C 4.201900 -0.797600 -0.779500 C 4 XO 0.000000
6 C 5.128600 -1.019400 0.289000 C 5 XO 0.000000
7 C 4.901300 -0.511200 1.526400 C 6 XO 0.000000
8 C 3.746000 0.314000 1.811300 C 7 XO 0.000000
9 C -1.735300 2.083000 -1.222700 C 8 XO 0.000000
10 C -2.814600 -0.168000 -1.629500 C 9 XO 0.000000
11 C -2.986200 2.551200 -0.463300 C 10 XO 0.000000
12 C -4.068200 0.295100 -0.871500 C 11 XO 0.000000
13 C -1.548000 0.558400 -1.133300 C 12 XO 0.000000
14 C -4.220900 1.811600 -0.976800 C 13 XO 0.000000
15 C 1.832300 1.593800 0.996300 C 14 XO 0.000000
16 C -0.350600 0.075700 -1.939900 C 15 XO 0.000000
17 N 4.487200 -1.372400 -1.977200 N 16 XO 0.000000
18 N 2.871100 0.577000 0.729000 N 17 XO 0.000000
19 N -5.440300 2.253400 -0.194900 N 18 XO 1.000000
20 O 3.525000 0.807800 2.934800 O 19 XO 0.000000
21 O 0.863000 0.663800 -1.354100 O 20 XO 0.000000
22 F 1.599600 -0.376600 -3.869000 F 21 XO 0.000000
23 H 3.856700 -1.633000 -3.948000 H 22 XO 0.000000
24 H 6.012500 -1.621400 0.070800 H 23 XO 0.000000
25 H 5.586100 -0.683300 2.356300 H 24 XO 0.000000
26 H -0.853500 2.603300 -0.823800 H 25 XO 0.000000
27 H -1.822100 2.371700 -2.284900 H 26 XO 0.000000
28 H -2.948100 0.024700 -2.708100 H 27 XO 0.000000
29 H -2.702300 -1.256000 -1.511100 H 28 XO 0.000000
30 H -2.865400 2.347800 0.614800 H 29 XO 0.000000
31 H -3.116200 3.637900 -0.580500 H 30 XO 0.000000
32 H -4.960100 -0.206600 -1.276500 H 31 XO 0.000000
33 H -3.982800 0.012600 0.191700 H 32 XO 0.000000
34 H -1.384500 0.278700 -0.077500 H 33 XO 0.000000
35 H -4.429300 2.100000 -2.016900 H 34 XO 0.000000
36 H 2.162000 2.157100 1.873600 H 35 XO 0.000000
37 H 1.735800 2.255700 0.133300 H 36 XO 0.000000
38 H 0.865400 1.126500 1.215700 H 37 XO 0.000000
39 H -0.260700 -1.020000 -1.895700 H 38 XO 0.000000
40 H -0.436500 0.393000 -2.988300 H 39 XO 0.000000
41 H -5.594000 3.267900 -0.271600 H 40 XO 0.000000
42 H -6.295900 1.791700 -0.531900 H 41 XO 0.000000
43 H -5.348200 2.033200 0.806600 H 42 XO 0.000000

@<TRIPOS>BOND
1 1 4 ar
2 1 17 ar
3 2 3 ar
4 2 5 ar
5 2 18 1
6 3 4 ar
7 3 21 1
8 4 22 1
9 5 6 1
10 5 17 ar
11 6 7 2
12 7 8 1
13 8 18 1
14 8 20 2
15 9 11 1
16 9 13 1
17 10 12 1
18 10 13 1
19 11 14 1
20 12 14 1
21 13 16 1
22 14 19 1
23 15 18 1
24 16 21 1
25 1 23 1
26 6 24 1
27 7 25 1
28 9 26 1
29 9 27 1
30 10 28 1
31 10 29 1
32 11 30 1
33 11 31 1
34 12 32 1
35 12 33 1
36 13 34 1
37 14 35 1
38 15 36 1
39 15 37 1
40 15 38 1
41 16 39 1
42 16 40 1
43 19 41 1
44 19 42 1
45 19 43 1

@<COSMOlogic>TOTAL_CHARGE
1.0
