# Created by COSMOvis on Mon Aug 09 22:24:22 CEST 2021
#
#

#
#

@<TRIPOS>MOLECULE
SAMPL8-21_extra003_c0
41 42
SMALL
USER_CHARGES

@<TRIPOS>ATOM
1 C 1.746900 1.683400 -0.156600 C 0 XO 0.000000
2 C 1.302600 -0.576500 0.613700 C 1 XO 0.000000
3 C 0.853200 0.725400 0.344500 C 2 XO 0.000000
4 C -1.625800 0.143200 0.119500 C 3 XO 0.000000
5 C 3.093900 1.354800 -0.389200 C 4 XO 0.000000
6 C 2.642900 -0.904600 0.383000 C 5 XO 0.000000
7 C 3.546700 0.052400 -0.117900 C 6 XO 0.000000
8 C -1.783300 -0.150100 -1.270300 C 7 XO 0.000000
9 C -2.518500 -0.488000 0.967900 C 8 XO 0.000000
10 C -3.559800 -1.564200 -0.899500 C 9 XO 0.000000
11 C 3.618700 3.565000 -1.172200 C 10 XO 0.000000
12 C 2.381200 -3.191200 1.107000 C 11 XO 0.000000
13 C -3.419700 -0.936800 3.164000 C 12 XO 0.000000
14 C -0.592500 1.122000 0.623900 C 13 XO 0.000000
15 N -2.733200 -0.988900 -1.758400 N 14 XO 0.000000
16 N -3.470500 -1.337200 0.458200 N 15 XO 0.000000
17 N -0.984200 0.429800 -2.184800 N 16 XO 1.000000
18 N -4.521700 -2.394400 -1.327000 N 17 XO 0.000000
19 O 4.859800 -0.273400 -0.351200 O 18 XO 0.000000
20 O 4.038700 2.219000 -0.878700 O 19 XO 0.000000
21 O 3.217700 -2.134600 0.598100 O 20 XO 0.000000
22 O -2.467000 -0.277200 2.284200 O 21 XO 0.000000
23 H 1.390900 2.693700 -0.357700 H 22 XO 0.000000
24 H 0.609500 -1.325000 0.996400 H 23 XO 0.000000
25 H 3.250800 4.072700 -0.267500 H 24 XO 0.000000
26 H 2.839100 3.577600 -1.949300 H 25 XO 0.000000
27 H 4.513800 4.075500 -1.542200 H 26 XO 0.000000
28 H 3.034300 -4.064300 1.201400 H 27 XO 0.000000
29 H 1.562600 -3.414000 0.406500 H 28 XO 0.000000
30 H 1.970800 -2.925400 2.092600 H 29 XO 0.000000
31 H -3.159800 -0.588900 4.166500 H 30 XO 0.000000
32 H -3.303000 -2.027900 3.110800 H 31 XO 0.000000
33 H -4.445700 -0.629000 2.920600 H 32 XO 0.000000
34 H -0.735000 1.255300 1.705800 H 33 XO 0.000000
35 H -0.781200 2.109400 0.170100 H 34 XO 0.000000
36 H -1.065300 0.148500 -3.158000 H 35 XO 0.000000
37 H -0.145100 0.930100 -1.902600 H 36 XO 0.000000
38 H -4.592900 -2.589800 -2.320300 H 37 XO 0.000000
39 H -5.154500 -2.870800 -0.693000 H 38 XO 0.000000
40 H 4.968300 -1.216400 -0.106300 H 39 XO 0.000000
41 H -4.124200 -1.804400 1.086000 H 40 XO 0.000000

@<TRIPOS>BOND
1 1 3 ar
2 1 5 ar
3 2 3 ar
4 2 6 ar
5 3 14 1
6 4 8 1
7 4 9 2
8 4 14 1
9 5 7 ar
10 5 20 1
11 6 7 ar
12 6 21 1
13 7 19 1
14 8 15 1
15 8 17 2
16 9 16 1
17 9 22 1
18 10 15 2
19 10 16 1
20 10 18 1
21 11 20 1
22 12 21 1
23 13 22 1
24 1 23 1
25 2 24 1
26 11 25 1
27 11 26 1
28 11 27 1
29 12 28 1
30 12 29 1
31 12 30 1
32 13 31 1
33 13 32 1
34 13 33 1
35 14 34 1
36 14 35 1
37 16 41 1
38 17 36 1
39 17 37 1
40 18 38 1
41 18 39 1
42 19 40 1

@<COSMOlogic>TOTAL_CHARGE
1.0
