# Created by COSMOvis on Mon Aug 09 22:24:21 CEST 2021
#
#

#
#

@<TRIPOS>MOLECULE
SAMPL8-14_micro029_c0
42 43
SMALL
USER_CHARGES

@<TRIPOS>ATOM
1 C 1.979900 -0.411000 -2.147200 C 0 XO 0.000000
2 C 1.009500 -0.254700 -1.004600 C 1 XO 0.000000
3 C 1.138300 0.787600 -0.086900 C 2 XO 0.000000
4 C 0.242600 0.946900 0.985900 C 3 XO 0.000000
5 C -0.801700 0.010900 1.098700 C 4 XO 0.000000
6 C -0.989400 -1.058400 0.208400 C 5 XO 0.000000
7 C -0.064500 -1.223400 -0.900000 C 6 XO 0.000000
8 O -0.159300 -2.176000 -1.777100 O 7 XO -1.000000
9 C -2.155000 -2.049900 0.391500 C 8 XO 0.000000
10 C -3.066700 -2.016000 -0.859000 C 9 XO 0.000000
11 C -3.032000 -1.728800 1.617700 C 10 XO 0.000000
12 C -1.593200 -3.480600 0.578400 C 11 XO 0.000000
13 C 0.395000 2.077000 1.995900 C 12 XO 0.000000
14 C 0.428600 3.473900 1.412500 C 13 XO 0.000000
15 C 1.455800 4.387000 1.685000 C 14 XO 0.000000
16 N 1.546700 5.652000 1.259600 N 15 XO 0.000000
17 C 0.531700 6.136500 0.465100 C 16 XO 0.000000
18 N 0.448700 7.345800 -0.020900 N 17 XO 0.000000
19 N -0.513300 5.247000 0.135600 N 18 XO 0.000000
20 C -0.598500 3.961000 0.580500 C 19 XO 0.000000
21 N -1.683300 3.229000 0.234000 N 20 XO 0.000000
22 H 2.482700 -1.392200 -2.117700 H 21 XO 0.000000
23 H 2.749500 0.375100 -2.128800 H 22 XO 0.000000
24 H 1.464300 -0.371500 -3.121500 H 23 XO 0.000000
25 H 1.961900 1.501000 -0.208300 H 24 XO 0.000000
26 H -1.493400 0.131300 1.937300 H 25 XO 0.000000
27 H -3.876300 -2.759600 -0.767200 H 26 XO 0.000000
28 H -2.475400 -2.236600 -1.757400 H 27 XO 0.000000
29 H -3.529700 -1.023000 -0.971900 H 28 XO 0.000000
30 H -3.841000 -2.472600 1.688500 H 29 XO 0.000000
31 H -3.498800 -0.734400 1.542700 H 30 XO 0.000000
32 H -2.459700 -1.768700 2.557400 H 31 XO 0.000000
33 H -2.415900 -4.211000 0.658600 H 32 XO 0.000000
34 H -0.993700 -3.543100 1.500300 H 33 XO 0.000000
35 H -0.957600 -3.745600 -0.276600 H 34 XO 0.000000
36 H -0.432800 1.999600 2.724500 H 35 XO 0.000000
37 H 1.320000 1.950900 2.584900 H 36 XO 0.000000
38 H 2.284300 4.046200 2.318200 H 37 XO 0.000000
39 H 1.275400 7.865000 0.297300 H 38 XO 0.000000
40 H -1.243900 5.618100 -0.472400 H 39 XO 0.000000
41 H -1.585200 2.213800 0.317700 H 40 XO 0.000000
42 H -2.302600 3.560800 -0.501900 H 41 XO 0.000000

@<TRIPOS>BOND
1 1 2 1
2 2 3 ar
3 2 7 ar
4 3 4 ar
5 4 5 ar
6 4 13 1
7 5 6 ar
8 6 7 ar
9 6 9 1
10 7 8 1
11 9 10 1
12 9 11 1
13 9 12 1
14 13 14 1
15 14 15 1
16 14 20 2
17 15 16 2
18 16 17 1
19 17 18 2
20 17 19 1
21 19 20 1
22 20 21 1
23 1 22 1
24 1 23 1
25 1 24 1
26 3 25 1
27 5 26 1
28 10 27 1
29 10 28 1
30 10 29 1
31 11 30 1
32 11 31 1
33 11 32 1
34 12 33 1
35 12 34 1
36 12 35 1
37 13 36 1
38 13 37 1
39 15 38 1
40 18 39 1
41 19 40 1
42 21 41 1
43 21 42 1

@<COSMOlogic>TOTAL_CHARGE
-1.0
