# Created by COSMOvis on Mon Aug 09 22:24:22 CEST 2021
#
#

#
#

@<TRIPOS>MOLECULE
SAMPL8-21_micro005_c0
38 39
SMALL
USER_CHARGES

@<TRIPOS>ATOM
1 C 1.568800 -0.807300 -2.504700 C 0 XO 0.000000
2 O 0.983800 -1.256600 -1.278100 O 1 XO 0.000000
3 C 0.045500 -0.423700 -0.679200 C 2 XO 0.000000
4 C -0.337300 0.812100 -1.205400 C 3 XO 0.000000
5 C -1.302400 1.613100 -0.560700 C 4 XO 0.000000
6 C -1.858800 1.130800 0.629900 C 5 XO 0.000000
7 C -1.478400 -0.109600 1.161000 C 6 XO 0.000000
8 C -0.528400 -0.978100 0.529900 C 7 XO 0.000000
9 O -0.198800 -2.146900 0.989400 O 8 XO -1.000000
10 O -2.117600 -0.532700 2.337500 O 9 XO 0.000000
11 C -1.218300 -0.686900 3.455000 C 10 XO 0.000000
12 C -1.758400 2.934500 -1.175300 C 11 XO 0.000000
13 C -0.654700 3.845900 -1.656900 C 12 XO 0.000000
14 C 0.192000 4.548600 -0.709700 C 13 XO 0.000000
15 N 0.103500 4.442200 0.613500 N 14 XO -1.000000
16 N 1.169300 5.408100 -1.205700 N 15 XO 0.000000
17 C 1.288600 5.518800 -2.526400 C 16 XO 0.000000
18 N 2.229100 6.438200 -3.001500 N 17 XO 0.000000
19 N 0.571400 4.883000 -3.482400 N 18 XO 0.000000
20 C -0.387800 4.063300 -3.002800 C 19 XO 0.000000
21 O -1.161400 3.396200 -3.927600 O 20 XO 0.000000
22 C -0.882600 3.630300 -5.322400 C 21 XO 0.000000
23 H 2.265300 -1.595900 -2.813000 H 22 XO 0.000000
24 H 2.124000 0.136300 -2.369700 H 23 XO 0.000000
25 H 0.806800 -0.665600 -3.289600 H 24 XO 0.000000
26 H 0.119500 1.189800 -2.121600 H 25 XO 0.000000
27 H -2.602500 1.721700 1.174300 H 26 XO 0.000000
28 H -0.769600 0.284400 3.727100 H 27 XO 0.000000
29 H -0.427600 -1.411900 3.212000 H 28 XO 0.000000
30 H -1.820400 -1.054400 4.296600 H 29 XO 0.000000
31 H -2.367300 3.464600 -0.419500 H 30 XO 0.000000
32 H -2.435000 2.731800 -2.021100 H 31 XO 0.000000
33 H -0.614900 3.742100 0.833900 H 32 XO 0.000000
34 H 2.981800 6.634900 -2.344700 H 33 XO 0.000000
35 H 2.563800 6.240600 -3.942600 H 34 XO 0.000000
36 H 0.139500 3.322800 -5.583800 H 35 XO 0.000000
37 H -1.016000 4.688600 -5.586600 H 36 XO 0.000000
38 H -1.609300 3.013700 -5.864300 H 37 XO 0.000000

@<TRIPOS>BOND
1 1 2 1
2 2 3 1
3 3 4 ar
4 3 8 ar
5 4 5 ar
6 5 6 ar
7 5 12 1
8 6 7 ar
9 7 8 ar
10 7 10 1
11 8 9 1
12 10 11 1
13 12 13 1
14 13 14 ar
15 13 20 ar
16 14 15 1
17 14 16 ar
18 16 17 ar
19 17 18 1
20 17 19 ar
21 19 20 ar
22 20 21 1
23 21 22 1
24 1 23 1
25 1 24 1
26 1 25 1
27 4 26 1
28 6 27 1
29 11 28 1
30 11 29 1
31 11 30 1
32 12 31 1
33 12 32 1
34 15 33 1
35 18 34 1
36 18 35 1
37 22 36 1
38 22 37 1
39 22 38 1

@<COSMOlogic>TOTAL_CHARGE
-2.0
