# Created by COSMOvis on Mon Aug 09 22:24:22 CEST 2021
#
#

#
#

@<TRIPOS>MOLECULE
SAMPL8-21_micro020_c0
39 40
SMALL
USER_CHARGES

@<TRIPOS>ATOM
1 C 2.821700 -0.171200 2.457600 C 0 XO 0.000000
2 O 1.890400 -1.013100 1.769400 O 1 XO 0.000000
3 C 0.932600 -0.389500 0.979200 C 2 XO 0.000000
4 C 0.834800 0.998500 0.835800 C 3 XO 0.000000
5 C -0.156300 1.568000 0.017200 C 4 XO 0.000000
6 C -1.041400 0.709000 -0.658700 C 5 XO 0.000000
7 C -0.942500 -0.682200 -0.516300 C 6 XO 0.000000
8 C 0.048100 -1.315200 0.313600 C 7 XO 0.000000
9 O 0.144700 -2.600300 0.445500 O 8 XO -1.000000
10 O -1.783700 -1.580100 -1.164100 O 9 XO 0.000000
11 C -2.787300 -1.032000 -2.025100 C 10 XO 0.000000
12 C -0.304500 3.081000 -0.107200 C 11 XO 0.000000
13 C 0.973500 3.828400 -0.416700 C 12 XO 0.000000
14 C 1.729300 3.596300 -1.613500 C 13 XO 0.000000
15 N 2.845600 4.256600 -1.957100 N 14 XO 0.000000
16 C 3.327500 5.233500 -1.133000 C 15 XO 0.000000
17 N 4.389600 5.965800 -1.340600 N 16 XO 0.000000
18 N 2.624600 5.480100 0.068100 N 17 XO 0.000000
19 C 1.487700 4.810300 0.411200 C 18 XO 0.000000
20 O 0.861300 5.115700 1.563800 O 19 XO 0.000000
21 C 1.416000 6.136400 2.430900 C 20 XO 0.000000
22 N 1.271400 2.664700 -2.503900 N 21 XO 0.000000
23 H 2.313600 0.503500 3.167100 H 22 XO 0.000000
24 H 3.420600 0.432300 1.754900 H 23 XO 0.000000
25 H 3.484700 -0.846100 3.011400 H 24 XO 0.000000
26 H 1.534700 1.657500 1.352500 H 25 XO 0.000000
27 H -1.816600 1.143600 -1.293400 H 26 XO 0.000000
28 H -2.342300 -0.450900 -2.850700 H 27 XO 0.000000
29 H -3.491800 -0.388200 -1.472200 H 28 XO 0.000000
30 H -3.330000 -1.890100 -2.438700 H 29 XO 0.000000
31 H -0.730200 3.499900 0.817400 H 30 XO 0.000000
32 H -1.045700 3.289300 -0.899000 H 31 XO 0.000000
33 H 4.796400 5.678800 -2.238500 H 32 XO 0.000000
34 H 3.006600 6.208000 0.669100 H 33 XO 0.000000
35 H 1.439400 7.111600 1.923800 H 34 XO 0.000000
36 H 2.417700 5.851000 2.781400 H 35 XO 0.000000
37 H 0.731800 6.185500 3.282200 H 36 XO 0.000000
38 H 0.667100 1.925400 -2.140900 H 37 XO 0.000000
39 H 1.917500 2.390200 -3.240600 H 38 XO 0.000000

@<TRIPOS>BOND
1 1 2 1
2 2 3 1
3 3 4 ar
4 3 8 ar
5 4 5 ar
6 5 6 ar
7 5 12 1
8 6 7 ar
9 7 8 ar
10 7 10 1
11 8 9 1
12 10 11 1
13 12 13 1
14 13 14 1
15 13 19 2
16 14 15 2
17 14 22 1
18 15 16 1
19 16 17 2
20 16 18 1
21 18 19 1
22 19 20 1
23 20 21 1
24 1 23 1
25 1 24 1
26 1 25 1
27 4 26 1
28 6 27 1
29 11 28 1
30 11 29 1
31 11 30 1
32 12 31 1
33 12 32 1
34 17 33 1
35 18 34 1
36 21 35 1
37 21 36 1
38 21 37 1
39 22 38 1
40 22 39 1

@<COSMOlogic>TOTAL_CHARGE
-1.0
