# Created by COSMOvis on Mon Aug 09 22:24:23 CEST 2021
#
#

#
#

@<TRIPOS>MOLECULE
SAMPL8-5_micro003_c0
31 32
SMALL
USER_CHARGES

@<TRIPOS>ATOM
1 C 1.116600 -1.346900 0.158100 C 0 XO 0.000000
2 C 0.924000 -0.111100 0.777600 C 1 XO 0.000000
3 C 2.064600 2.947100 6.025700 C 2 XO 0.000000
4 C 2.022200 -2.265400 0.695800 C 3 XO 0.000000
5 C 1.630800 0.198500 1.943400 C 4 XO 0.000000
6 C 3.229100 3.017100 5.258900 C 5 XO 0.000000
7 C 1.289200 1.786300 6.050100 C 6 XO 0.000000
8 C 2.747600 -1.981500 1.862100 C 7 XO 0.000000
9 C 2.515300 -0.736200 2.468100 C 8 XO 0.000000
10 C 2.844100 0.730300 4.508400 C 9 XO 0.000000
11 C 3.607300 1.908100 4.506100 C 10 XO 0.000000
12 C 1.682900 0.681700 5.295200 C 11 XO 0.000000
13 C 3.507600 -3.564600 3.722000 C 12 XO 0.000000
14 C 3.778000 -2.989500 2.348400 C 13 XO 0.000000
15 N 3.284200 -0.419800 3.717700 N 14 XO 1.000000
16 O 3.272700 -2.876700 4.723100 O 15 XO 0.000000
17 Cl 5.077800 1.974700 3.541800 Cl 16 XO 0.000000
18 Cl 0.706900 -0.775900 5.335500 Cl 17 XO 0.000000
19 H 0.565900 -1.598500 -0.749000 H 18 XO 0.000000
20 H 0.226000 0.616500 0.363200 H 19 XO 0.000000
21 H 1.758600 3.810100 6.617100 H 20 XO 0.000000
22 H 2.181600 -3.224300 0.199600 H 21 XO 0.000000
23 H 1.482200 1.159500 2.435600 H 22 XO 0.000000
24 H 3.838600 3.919200 5.243400 H 23 XO 0.000000
25 H 0.384600 1.731200 6.653800 H 24 XO 0.000000
26 H 3.857700 -3.805800 1.623400 H 25 XO 0.000000
27 H 4.777200 -2.522800 2.407100 H 26 XO 0.000000
28 H 3.291600 -1.331000 4.309900 H 27 XO 0.000000
29 O 3.577000 -4.892500 3.767200 O 28 XO 0.000000
30 H 3.429200 -5.193200 4.692600 H 29 XO 0.000000
31 H 4.272500 -0.240400 3.452000 H 30 XO 0.000000

@<TRIPOS>BOND
1 1 2 ar
2 1 4 ar
3 2 5 ar
4 3 6 ar
5 3 7 ar
6 4 8 ar
7 5 9 ar
8 6 11 ar
9 7 12 ar
10 8 9 ar
11 8 14 1
12 9 15 1
13 10 11 ar
14 10 12 ar
15 10 15 1
16 11 17 1
17 12 18 1
18 13 14 1
19 13 16 2
20 13 29 1
21 1 19 1
22 2 20 1
23 3 21 1
24 4 22 1
25 5 23 1
26 6 24 1
27 7 25 1
28 14 26 1
29 14 27 1
30 15 28 1
31 15 31 1
32 29 30 1

@<COSMOlogic>TOTAL_CHARGE
1.0
