# Created by COSMOvis on Mon Aug 09 22:24:23 CEST 2021
#
#

#
#

@<TRIPOS>MOLECULE
SAMPL8-3_extra001_c0
33 34
SMALL
USER_CHARGES

@<TRIPOS>ATOM
1 C 5.646400 0.052000 -0.278900 C 0 XO 0.000000
2 C 4.416600 0.598100 -0.766900 C 1 XO 0.000000
3 C -2.434400 0.038400 -0.862100 C 2 XO 0.000000
4 C -0.823200 -0.047400 1.419700 C 3 XO 0.000000
5 C 5.379700 -0.451800 0.964200 C 4 XO 0.000000
6 C -1.065200 -0.227400 -1.005000 C 5 XO 0.000000
7 C -0.278300 -0.264100 0.161400 C 6 XO 0.000000
8 C -2.996800 0.261500 0.391100 C 7 XO 0.000000
9 C -2.189000 0.219900 1.538200 C 8 XO 0.000000
10 C 3.481900 0.397300 0.215700 C 9 XO 0.000000
11 C -0.479000 -0.495500 -2.349100 C 10 XO 0.000000
12 C 2.049800 0.722800 0.332500 C 11 XO 0.000000
13 N -5.581700 -0.486800 1.387600 N 12 XO 0.000000
14 N 1.165200 -0.519600 0.059900 N 13 XO 1.000000
15 O 0.706200 -0.795200 -2.528100 O 14 XO 0.000000
16 O -4.953200 1.963600 1.104700 O 15 XO 0.000000
17 O -5.289100 0.440400 -0.954700 O 16 XO 0.000000
18 O 4.062900 -0.251100 1.290800 O 17 XO 0.000000
19 O -1.362400 -0.385700 -3.342200 O 18 XO 0.000000
20 S -4.794700 0.646900 0.432700 S 19 XO 0.000000
21 Cl -2.832700 0.479300 3.140900 Cl 20 XO 0.000000
22 H 6.606200 0.038800 -0.786200 H 21 XO 0.000000
23 H 4.246800 1.085300 -1.722600 H 22 XO 0.000000
24 H -3.074700 0.063800 -1.742300 H 23 XO 0.000000
25 H -0.201900 -0.093900 2.313700 H 24 XO 0.000000
26 H 5.977900 -0.953700 1.717000 H 25 XO 0.000000
27 H 1.757100 1.470800 -0.411000 H 26 XO 0.000000
28 H 1.780500 1.080000 1.333200 H 27 XO 0.000000
29 H -5.287000 -0.444300 2.368100 H 28 XO 0.000000
30 H -5.496400 -1.434800 1.007500 H 29 XO 0.000000
31 H 1.337500 -0.839800 -0.933000 H 30 XO 0.000000
32 H -0.912700 -0.585400 -4.193000 H 31 XO 0.000000
33 H 1.437300 -1.282300 0.696300 H 32 XO 0.000000

@<TRIPOS>BOND
1 1 2 ar
2 1 5 ar
3 2 10 ar
4 3 6 ar
5 3 8 ar
6 4 7 ar
7 4 9 ar
8 5 18 ar
9 6 7 ar
10 6 11 1
11 7 14 1
12 8 9 ar
13 8 20 1
14 9 21 1
15 10 12 1
16 10 18 ar
17 11 15 2
18 11 19 1
19 12 14 1
20 13 20 1
21 16 20 2
22 17 20 2
23 1 22 1
24 2 23 1
25 3 24 1
26 4 25 1
27 5 26 1
28 12 27 1
29 12 28 1
30 13 29 1
31 13 30 1
32 14 31 1
33 14 33 1
34 19 32 1

@<COSMOlogic>TOTAL_CHARGE
1.0
