# Created by COSMOvis on Mon Aug 09 22:24:23 CEST 2021
#
#

#
#

@<TRIPOS>MOLECULE
SAMPL8-4_micro001_c0
27 28
SMALL
USER_CHARGES

@<TRIPOS>ATOM
1 N -1.467200 -2.032000 -3.224000 N 0 XO 1.000000
2 C -1.144700 -3.344900 -3.560100 C 1 XO 0.000000
3 C -0.203500 -3.511500 -4.754400 C 2 XO 0.000000
4 O 0.156800 -2.414700 -5.277800 O 3 XO -1.000000
5 O 0.111600 -4.683100 -5.088800 O 4 XO 0.000000
6 C -6.084900 1.087800 2.370300 C 5 XO 0.000000
7 C -5.357500 -0.643900 0.793400 C 6 XO 0.000000
8 C -4.521300 -1.096200 -0.218800 C 7 XO 0.000000
9 C -3.353100 1.042800 -0.189300 C 8 XO 0.000000
10 C -5.213600 0.648800 1.335400 C 9 XO 0.000000
11 C -3.503600 -0.258500 -0.706100 C 10 XO 0.000000
12 C -4.199000 1.483900 0.815500 C 11 XO 0.000000
13 C -1.751800 -4.256800 -2.748400 C 12 XO 0.000000
14 C -2.286100 -1.862100 -2.181200 C 13 XO 0.000000
15 C -1.709500 -5.745100 -2.759200 C 14 XO 0.000000
16 N -6.812800 1.424400 3.219200 N 15 XO 0.000000
17 N -2.612400 -0.632800 -1.721200 N 16 XO 0.000000
18 S -2.743500 -3.415600 -1.527400 S 17 XO 0.000000
19 Cl -3.988700 3.105100 1.453100 Cl 18 XO 0.000000
20 H -6.149400 -1.292000 1.167500 H 19 XO 0.000000
21 H -4.702900 -2.083200 -0.639300 H 20 XO 0.000000
22 H -2.568300 1.697500 -0.568500 H 21 XO 0.000000
23 H -1.310400 -6.141900 -1.814100 H 22 XO 0.000000
24 H -2.712900 -6.171900 -2.906400 H 23 XO 0.000000
25 H -1.059500 -6.059300 -3.584500 H 24 XO 0.000000
26 H -2.082000 0.133900 -2.138900 H 25 XO 0.000000
27 H -1.053700 -1.280100 -3.788600 H 26 XO 0.000000

@<TRIPOS>BOND
1 1 2 1
2 1 14 2
3 2 3 1
4 2 13 2
5 3 4 1
6 3 5 2
7 6 10 1
8 6 16 3
9 7 8 ar
10 7 10 ar
11 8 11 ar
12 9 11 ar
13 9 12 ar
14 10 12 ar
15 11 17 1
16 12 19 1
17 13 15 1
18 13 18 1
19 14 17 1
20 14 18 1
21 1 27 1
22 7 20 1
23 8 21 1
24 9 22 1
25 15 23 1
26 15 24 1
27 15 25 1
28 17 26 1

@<COSMOlogic>TOTAL_CHARGE
0.0
