# Created by COSMOvis on Mon Aug 09 22:24:21 CEST 2021
#
#

#
#

@<TRIPOS>MOLECULE
SAMPL8-19_micro005_c0
47 50
SMALL
USER_CHARGES

@<TRIPOS>ATOM
1 C -4.435400 -3.316100 0.042800 C 0 XO 0.000000
2 C -5.657400 -2.870300 -0.508600 C 1 XO 0.000000
3 C -3.414500 -2.428700 0.381400 C 2 XO 0.000000
4 C -5.907300 -1.518500 -0.745000 C 3 XO 0.000000
5 C 5.393100 0.269900 0.719100 C 4 XO 0.000000
6 C 3.711000 -1.376900 0.521800 C 5 XO 0.000000
7 C 4.102300 -0.139900 1.056500 C 6 XO 0.000000
8 C -3.662100 -1.073600 0.145000 C 7 XO 0.000000
9 C -4.883300 -0.629000 -0.408100 C 8 XO 0.000000
10 C -3.591100 1.149300 -0.040200 C 9 XO 0.000000
11 C 5.719600 -1.612400 -0.512900 C 10 XO 0.000000
12 C 0.709700 0.786200 1.466000 C 11 XO 0.000000
13 C 1.985600 1.224000 1.216100 C 12 XO 0.000000
14 C 2.178800 2.263400 0.219800 C 13 XO 0.000000
15 C -0.251300 2.173100 -0.089200 C 14 XO 0.000000
16 C -5.870500 1.610500 -1.038400 C 15 XO 0.000000
17 C 7.808700 -1.925100 -1.639500 C 16 XO 0.000000
18 C 3.192000 0.685800 1.944100 C 17 XO 0.000000
19 C -3.047400 2.525400 0.067300 C 18 XO 0.000000
20 N 6.215200 -0.453400 -0.063600 N 19 XO 0.000000
21 N 4.500800 -2.125200 -0.259000 N 20 XO 0.000000
22 N -2.903500 0.065900 0.361000 N 21 XO 1.000000
23 N 0.969700 2.693100 -0.381900 N 22 XO 0.000000
24 N -4.798300 0.763600 -0.512000 N 23 XO 0.000000
25 N -0.416400 1.227000 0.809000 N 24 XO 0.000000
26 O 3.247700 2.792200 -0.104000 O 25 XO 0.000000
27 O 6.477900 -2.397100 -1.308100 O 26 XO 0.000000
28 S -1.599300 2.852700 -1.046200 S 27 XO 0.000000
29 H -4.287300 -4.383500 0.209400 H 28 XO 0.000000
30 H -6.426400 -3.602600 -0.756200 H 29 XO 0.000000
31 H -2.472900 -2.772400 0.808600 H 30 XO 0.000000
32 H -6.851300 -1.179400 -1.170200 H 31 XO 0.000000
33 H 5.791900 1.217900 1.091200 H 32 XO 0.000000
34 H 2.719100 -1.788900 0.732100 H 33 XO 0.000000
35 H 0.527000 0.024200 2.226700 H 34 XO 0.000000
36 H -5.570800 2.660200 -0.993300 H 35 XO 0.000000
37 H -6.772900 1.469100 -0.432100 H 36 XO 0.000000
38 H -6.069800 1.335500 -2.080800 H 37 XO 0.000000
39 H 7.757800 -0.971900 -2.181300 H 38 XO 0.000000
40 H 8.231600 -2.706500 -2.278400 H 39 XO 0.000000
41 H 8.413400 -1.802200 -0.731800 H 40 XO 0.000000
42 H 3.770900 1.526100 2.357100 H 41 XO 0.000000
43 H 2.850100 0.078500 2.795100 H 42 XO 0.000000
44 H -3.785800 3.277600 -0.226700 H 43 XO 0.000000
45 H -2.734300 2.737400 1.096900 H 44 XO 0.000000
46 H -1.917100 0.199200 0.696700 H 45 XO 0.000000
47 H 1.052400 3.466000 -1.047400 H 46 XO 0.000000

@<TRIPOS>BOND
1 1 2 ar
2 1 3 ar
3 2 4 ar
4 3 8 ar
5 4 9 ar
6 5 7 ar
7 5 20 ar
8 6 7 ar
9 6 21 ar
10 7 18 1
11 8 9 ar
12 8 22 1
13 9 24 1
14 10 19 1
15 10 22 2
16 10 24 1
17 11 20 ar
18 11 21 ar
19 11 27 1
20 12 13 2
21 12 25 1
22 13 14 1
23 13 18 1
24 14 23 1
25 14 26 2
26 15 23 1
27 15 25 2
28 15 28 1
29 16 24 1
30 17 27 1
31 19 28 1
32 1 29 1
33 2 30 1
34 3 31 1
35 4 32 1
36 5 33 1
37 6 34 1
38 12 35 1
39 16 36 1
40 16 37 1
41 16 38 1
42 17 39 1
43 17 40 1
44 17 41 1
45 18 42 1
46 18 43 1
47 19 44 1
48 19 45 1
49 22 46 1
50 23 47 1

@<COSMOlogic>TOTAL_CHARGE
1.0
