# Created by COSMOvis on Mon Aug 09 22:24:21 CEST 2021
#
#

#
#

@<TRIPOS>MOLECULE
SAMPL8-14_micro028_c0
42 43
SMALL
USER_CHARGES

@<TRIPOS>ATOM
1 C -2.524800 3.438800 -0.991200 C 0 XO 0.000000
2 C -1.769700 2.263700 -0.425500 C 1 XO 0.000000
3 C -0.489400 2.418900 0.113700 C 2 XO 0.000000
4 C 0.230900 1.334300 0.641700 C 3 XO 0.000000
5 C -0.384600 0.069800 0.605600 C 4 XO 0.000000
6 C -1.664000 -0.153100 0.083900 C 5 XO 0.000000
7 C -2.413500 0.969400 -0.463600 C 6 XO 0.000000
8 O -3.601800 0.853100 -0.974600 O 7 XO -1.000000
9 C -2.279800 -1.565800 0.065900 C 8 XO 0.000000
10 C -3.604400 -1.567000 0.868500 C 9 XO 0.000000
11 C -2.565500 -1.984700 -1.397200 C 10 XO 0.000000
12 C -1.357400 -2.632600 0.685800 C 11 XO 0.000000
13 C 1.611700 1.528000 1.256000 C 12 XO 0.000000
14 C 2.679100 0.583600 0.751300 C 13 XO 0.000000
15 C 3.372500 -0.251100 1.582900 C 14 XO 0.000000
16 N 4.357500 -1.066000 1.113300 N 15 XO 0.000000
17 C 4.739100 -1.090000 -0.237500 C 16 XO 0.000000
18 N 5.720000 -1.886600 -0.572300 N 17 XO 0.000000
19 N 4.040700 -0.279900 -1.102400 N 18 XO 0.000000
20 C 3.066900 0.510700 -0.643600 C 19 XO 0.000000
21 N 2.439400 1.319100 -1.541400 N 20 XO 0.000000
22 H -3.487700 3.587800 -0.473500 H 21 XO 0.000000
23 H -2.781500 3.281100 -2.052600 H 22 XO 0.000000
24 H -1.939700 4.366800 -0.910000 H 23 XO 0.000000
25 H -0.037500 3.419000 0.128200 H 24 XO 0.000000
26 H 0.181200 -0.776100 1.003800 H 25 XO 0.000000
27 H -3.414000 -1.334500 1.928500 H 26 XO 0.000000
28 H -4.289000 -0.813600 0.457500 H 27 XO 0.000000
29 H -4.084500 -2.558500 0.819100 H 28 XO 0.000000
30 H -3.220900 -1.244900 -1.875100 H 29 XO 0.000000
31 H -3.053400 -2.973100 -1.428000 H 30 XO 0.000000
32 H -1.626000 -2.050200 -1.968400 H 31 XO 0.000000
33 H -1.857900 -3.612800 0.644700 H 32 XO 0.000000
34 H -1.130000 -2.419200 1.742000 H 33 XO 0.000000
35 H -0.404800 -2.720700 0.141300 H 34 XO 0.000000
36 H 1.929500 2.569500 1.069200 H 35 XO 0.000000
37 H 1.570100 1.422500 2.354200 H 36 XO 0.000000
38 H 3.182400 -0.305700 2.654900 H 37 XO 0.000000
39 H 4.862200 -1.676600 1.752600 H 38 XO 0.000000
40 H 5.869500 -1.791000 -1.583400 H 39 XO 0.000000
41 H 2.615600 1.144600 -2.528200 H 40 XO 0.000000
42 H 1.513500 1.673300 -1.296100 H 41 XO 0.000000

@<TRIPOS>BOND
1 1 2 1
2 2 3 ar
3 2 7 ar
4 3 4 ar
5 4 5 ar
6 4 13 1
7 5 6 ar
8 6 7 ar
9 6 9 1
10 7 8 1
11 9 10 1
12 9 11 1
13 9 12 1
14 13 14 1
15 14 15 2
16 14 20 1
17 15 16 1
18 16 17 1
19 17 18 2
20 17 19 1
21 19 20 2
22 20 21 1
23 1 22 1
24 1 23 1
25 1 24 1
26 3 25 1
27 5 26 1
28 10 27 1
29 10 28 1
30 10 29 1
31 11 30 1
32 11 31 1
33 11 32 1
34 12 33 1
35 12 34 1
36 12 35 1
37 13 36 1
38 13 37 1
39 15 38 1
40 16 39 1
41 18 40 1
42 21 41 1
43 21 42 1

@<COSMOlogic>TOTAL_CHARGE
-1.0
