# Created by COSMOvis on Mon Aug 09 22:24:20 CEST 2021
#
#

#
#

@<TRIPOS>MOLECULE
SAMPL8-12_extra004_c0
42 44
SMALL
USER_CHARGES

@<TRIPOS>ATOM
1 C 4.366800 0.159900 0.846300 C 0 XO 0.000000
2 C 3.685100 0.585100 -1.421800 C 1 XO 0.000000
3 C 3.028100 0.194100 1.254900 C 2 XO 0.000000
4 C 2.348900 0.618700 -1.016500 C 3 XO 0.000000
5 C 0.377900 -1.996300 0.189300 C 4 XO 0.000000
6 C 4.721100 0.356700 -0.497700 C 5 XO 0.000000
7 C 1.999200 0.422300 0.330400 C 6 XO 0.000000
8 C -0.255000 -0.772400 0.410000 C 7 XO 0.000000
9 C -1.650500 -0.746700 0.159300 C 8 XO 0.000000
10 C -1.494100 -3.061400 -0.549300 C 9 XO 0.000000
11 C -2.430600 1.207200 1.485000 C 10 XO 0.000000
12 C -3.797000 0.359200 -0.365500 C 11 XO 0.000000
13 C -2.853800 2.620100 1.106600 C 12 XO 0.000000
14 C -4.164200 1.813000 -0.669700 C 13 XO 0.000000
15 C 6.165700 0.353300 -0.935100 C 14 XO 0.000000
16 C 0.548000 0.468300 0.770100 C 15 XO 0.000000
17 N -0.190800 -3.127500 -0.267900 N 16 XO 0.000000
18 N -2.210900 -1.911400 -0.325300 N 17 XO 0.000000
19 N -2.477500 0.322400 0.297400 N 18 XO 0.000000
20 N -2.136400 -4.121400 -1.053800 N 19 XO 1.000000
21 O -4.161700 2.627800 0.510300 O 20 XO 0.000000
22 H 5.148900 -0.022500 1.587800 H 21 XO 0.000000
23 H 3.929600 0.742200 -2.475500 H 22 XO 0.000000
24 H 2.782600 0.041200 2.309000 H 23 XO 0.000000
25 H 1.566500 0.801300 -1.757800 H 24 XO 0.000000
26 H 1.454400 -2.061600 0.363000 H 25 XO 0.000000
27 H -3.128900 0.797100 2.234800 H 26 XO 0.000000
28 H -1.431900 1.213300 1.926600 H 27 XO 0.000000
29 H -3.750900 -0.181700 -1.319300 H 28 XO 0.000000
30 H -4.565600 -0.100100 0.280000 H 29 XO 0.000000
31 H -2.121600 3.066600 0.408100 H 30 XO 0.000000
32 H -2.913100 3.241400 2.008700 H 31 XO 0.000000
33 H -5.179900 1.851000 -1.082600 H 32 XO 0.000000
34 H -3.456400 2.224900 -1.412100 H 33 XO 0.000000
35 H 6.562600 1.380200 -0.989600 H 34 XO 0.000000
36 H 6.281100 -0.091700 -1.933700 H 35 XO 0.000000
37 H 6.796100 -0.205700 -0.230300 H 36 XO 0.000000
38 H 0.064300 1.338800 0.299900 H 37 XO 0.000000
39 H 0.517700 0.641100 1.858100 H 38 XO 0.000000
40 H -3.130700 -4.116400 -1.256500 H 39 XO 0.000000
41 H -1.620600 -4.986600 -1.180300 H 40 XO 0.000000
42 H -3.222600 -1.943300 -0.456600 H 41 XO 0.000000

@<TRIPOS>BOND
1 1 3 ar
2 1 6 ar
3 2 4 ar
4 2 6 ar
5 3 7 ar
6 4 7 ar
7 5 8 1
8 5 17 2
9 6 15 1
10 7 16 1
11 8 9 2
12 8 16 1
13 9 18 1
14 9 19 1
15 10 17 1
16 10 18 1
17 10 20 2
18 11 13 1
19 11 19 1
20 12 14 1
21 12 19 1
22 13 21 1
23 14 21 1
24 1 22 1
25 2 23 1
26 3 24 1
27 4 25 1
28 5 26 1
29 11 27 1
30 11 28 1
31 12 29 1
32 12 30 1
33 13 31 1
34 13 32 1
35 14 33 1
36 14 34 1
37 15 35 1
38 15 36 1
39 15 37 1
40 16 38 1
41 16 39 1
42 18 42 1
43 20 40 1
44 20 41 1

@<COSMOlogic>TOTAL_CHARGE
1.0
