# Created by COSMOvis on Mon Aug 09 22:24:21 CEST 2021
#
#

#
#

@<TRIPOS>MOLECULE
SAMPL8-16_micro004_c0
36 37
SMALL
USER_CHARGES

@<TRIPOS>ATOM
1 C 3.247300 1.713300 1.654400 C 0 XO 0.000000
2 C 1.839700 1.591600 1.655400 C 1 XO 0.000000
3 C 4.040700 1.085300 2.614200 C 2 XO 0.000000
4 C 1.166900 0.837200 2.616200 C 3 XO 0.000000
5 C 3.367900 0.329100 3.576700 C 4 XO 0.000000
6 C 1.959600 0.207700 3.579400 C 5 XO 0.000000
7 C 2.773400 -0.976600 5.294300 C 6 XO 0.000000
8 C 0.849200 -3.300500 6.251400 C 7 XO 0.000000
9 C -1.755800 -4.552800 7.271500 C 8 XO 0.000000
10 C -1.431000 -4.617100 4.744900 C 9 XO 0.000000
11 C -0.757300 -6.585400 6.166100 C 10 XO 0.000000
12 C 2.816100 -1.843400 6.517700 C 11 XO 0.000000
13 C -0.905900 -5.065400 6.108800 C 12 XO 0.000000
14 N 3.820600 -0.425700 4.657500 N 13 XO 1.000000
15 N 1.646700 -0.602800 4.666200 N 14 XO 0.000000
16 N 2.204700 -3.148200 6.311300 N 15 XO 0.000000
17 O 0.066700 -2.340800 6.174200 O 16 XO 0.000000
18 O 0.518000 -4.605900 6.282400 O 17 XO 0.000000
19 H 3.726900 2.314700 0.881400 H 18 XO 0.000000
20 H 1.263300 2.101900 0.883100 H 19 XO 0.000000
21 H 5.126400 1.177200 2.614700 H 20 XO 0.000000
22 H 0.081700 0.742500 2.618600 H 21 XO 0.000000
23 H -2.751600 -5.015600 7.216000 H 22 XO 0.000000
24 H -1.303200 -4.834200 8.233000 H 23 XO 0.000000
25 H -1.873900 -3.464000 7.234100 H 24 XO 0.000000
26 H -0.753900 -4.944500 3.943200 H 25 XO 0.000000
27 H -1.549500 -3.528600 4.695000 H 26 XO 0.000000
28 H -2.412800 -5.081500 4.572100 H 27 XO 0.000000
29 H -1.745400 -7.053300 6.057800 H 28 XO 0.000000
30 H -0.111100 -6.945800 5.353700 H 29 XO 0.000000
31 H -0.328800 -6.900200 7.127700 H 30 XO 0.000000
32 H 3.860000 -1.995800 6.810600 H 31 XO 0.000000
33 H 2.312200 -1.307300 7.337500 H 32 XO 0.000000
34 H 0.731500 -0.943700 4.998400 H 33 XO 0.000000
35 H 2.795100 -3.974300 6.349900 H 34 XO 0.000000
36 H 4.792900 -0.551400 4.935000 H 35 XO 0.000000

@<TRIPOS>BOND
1 1 2 ar
2 1 3 ar
3 2 4 ar
4 3 5 ar
5 4 6 ar
6 5 6 ar
7 5 14 1
8 6 15 1
9 7 12 1
10 7 14 2
11 7 15 1
12 8 16 1
13 8 17 2
14 8 18 1
15 9 13 1
16 10 13 1
17 11 13 1
18 12 16 1
19 13 18 1
20 1 19 1
21 2 20 1
22 3 21 1
23 4 22 1
24 9 23 1
25 9 24 1
26 9 25 1
27 10 26 1
28 10 27 1
29 10 28 1
30 11 29 1
31 11 30 1
32 11 31 1
33 12 32 1
34 12 33 1
35 14 36 1
36 15 34 1
37 16 35 1

@<COSMOlogic>TOTAL_CHARGE
1.0
