# Created by COSMOvis on Mon Aug 09 22:24:21 CEST 2021
#
#

#
#

@<TRIPOS>MOLECULE
SAMPL8-18_micro003_c0
37 39
SMALL
USER_CHARGES

@<TRIPOS>ATOM
1 C 5.302500 2.113700 3.710100 C 0 XO 0.000000
2 C 4.522300 2.168500 4.882000 C 1 XO 0.000000
3 C 5.763400 0.896300 3.231100 C 2 XO 0.000000
4 C 4.206000 1.009100 5.576500 C 3 XO 0.000000
5 C 7.870800 -3.881900 2.684400 C 4 XO 0.000000
6 C 8.329300 -5.105100 2.174300 C 5 XO 0.000000
7 C 6.709000 -3.460400 0.582000 C 6 XO 0.000000
8 C 5.447000 -0.294400 3.918100 C 7 XO 0.000000
9 C 4.661600 -0.237600 5.108700 C 8 XO 0.000000
10 C 7.056700 -3.077000 1.889200 C 9 XO 0.000000
11 C 7.998200 -5.510400 0.879300 C 10 XO 0.000000
12 C 7.177900 -4.668900 0.067900 C 11 XO 0.000000
13 C 5.877500 -1.597600 3.476900 C 12 XO 0.000000
14 C 4.751600 -2.500100 5.383100 C 13 XO 0.000000
15 C 9.248600 -7.547500 1.073600 C 14 XO 0.000000
16 C 6.080400 -4.316300 -2.034900 C 15 XO 0.000000
17 N 4.326700 -1.377300 5.831600 N 16 XO 0.000000
18 N 5.516900 -2.662100 4.250700 N 17 XO 1.000000
19 N 6.582700 -1.809800 2.367100 N 18 XO 0.000000
20 O 8.404000 -6.671200 0.297400 O 19 XO 0.000000
21 O 6.905100 -5.136400 -1.180500 O 20 XO 0.000000
22 Cl 4.383300 -3.992000 6.207300 Cl 21 XO 0.000000
23 H 5.549700 3.031800 3.177200 H 22 XO 0.000000
24 H 4.166200 3.132000 5.248600 H 23 XO 0.000000
25 H 6.372900 0.880800 2.326400 H 24 XO 0.000000
26 H 3.607200 1.036400 6.487000 H 25 XO 0.000000
27 H 8.189200 -3.557800 3.675600 H 26 XO 0.000000
28 H 8.968600 -5.727600 2.797600 H 27 XO 0.000000
29 H 6.069800 -2.811500 -0.013900 H 28 XO 0.000000
30 H 9.448900 -8.405900 0.425300 H 29 XO 0.000000
31 H 8.733900 -7.882500 1.986400 H 30 XO 0.000000
32 H 10.194200 -7.050200 1.336000 H 31 XO 0.000000
33 H 5.992200 -4.872100 -2.973400 H 32 XO 0.000000
34 H 6.556200 -3.342100 -2.222700 H 33 XO 0.000000
35 H 5.082800 -4.169500 -1.594600 H 34 XO 0.000000
36 H 6.744900 -1.000500 1.768000 H 35 XO 0.000000
37 H 5.785200 -3.604300 3.948500 H 36 XO 0.000000

@<TRIPOS>BOND
1 1 2 ar
2 1 3 ar
3 2 4 ar
4 3 8 ar
5 4 9 ar
6 5 6 ar
7 5 10 ar
8 6 11 ar
9 7 10 ar
10 7 12 ar
11 8 9 ar
12 8 13 1
13 9 17 1
14 10 19 1
15 11 12 ar
16 11 20 1
17 12 21 1
18 13 18 2
19 13 19 1
20 14 17 2
21 14 18 1
22 14 22 1
23 15 20 1
24 16 21 1
25 1 23 1
26 2 24 1
27 3 25 1
28 4 26 1
29 5 27 1
30 6 28 1
31 7 29 1
32 15 30 1
33 15 31 1
34 15 32 1
35 16 33 1
36 16 34 1
37 16 35 1
38 18 37 1
39 19 36 1

@<COSMOlogic>TOTAL_CHARGE
1.0
