# Created by COSMOvis on Mon Aug 09 22:24:22 CEST 2021
#
#

#
#

@<TRIPOS>MOLECULE
SAMPL8-1_micro000_c0
30 31
SMALL
USER_CHARGES

@<TRIPOS>ATOM
1 C 1.525300 -1.007300 -0.150300 C 0 XO 0.000000
2 C 1.397600 0.235200 0.493300 C 1 XO 0.000000
3 C 0.537100 1.310600 7.036000 C 2 XO 0.000000
4 C 1.466400 -2.166200 0.611600 C 3 XO 0.000000
5 C 1.439300 2.358400 6.820700 C 4 XO 0.000000
6 C 1.238600 0.314200 1.870900 C 5 XO 0.000000
7 C 0.392500 0.291300 6.097600 C 6 XO 0.000000
8 C 2.093200 1.320700 4.709400 C 7 XO 0.000000
9 C 1.301000 -2.124700 2.013800 C 8 XO 0.000000
10 C 2.216600 2.344000 5.657000 C 9 XO 0.000000
11 C 1.164300 0.286000 4.916000 C 10 XO 0.000000
12 C 1.200000 -0.852400 2.671700 C 11 XO 0.000000
13 C 1.216900 -3.380000 2.776000 C 12 XO 0.000000
14 C 3.191600 3.457700 5.379500 C 13 XO 0.000000
15 N 1.017000 -0.798000 4.039300 N 14 XO 0.000000
16 O 0.937700 -3.469200 3.980900 O 15 XO 0.000000
17 O 1.474400 -4.491300 2.040800 O 16 XO 0.000000
18 F 3.508000 4.176800 6.492400 F 17 XO 0.000000
19 F 4.370900 3.001200 4.857200 F 18 XO 0.000000
20 F 2.697500 4.358000 4.465800 F 19 XO 0.000000
21 H 1.651400 -1.063200 -1.231600 H 20 XO 0.000000
22 H 1.408800 1.157000 -0.091300 H 21 XO 0.000000
23 H -0.069400 1.297100 7.942400 H 22 XO 0.000000
24 H 1.541000 -3.139200 0.127400 H 23 XO 0.000000
25 H 1.541200 3.160600 7.550100 H 24 XO 0.000000
26 H 1.103600 1.288400 2.337300 H 25 XO 0.000000
27 H -0.323500 -0.514500 6.270000 H 26 XO 0.000000
28 H 2.745800 1.306000 3.838000 H 27 XO 0.000000
29 H 0.802500 -1.712600 4.458500 H 28 XO 0.000000
30 H 1.367000 -5.264900 2.634600 H 29 XO 0.000000

@<TRIPOS>BOND
1 1 2 ar
2 1 4 ar
3 2 6 ar
4 3 5 ar
5 3 7 ar
6 4 9 ar
7 5 10 ar
8 6 12 ar
9 7 11 ar
10 8 10 ar
11 8 11 ar
12 9 12 ar
13 9 13 1
14 10 14 1
15 11 15 1
16 12 15 1
17 13 16 2
18 13 17 1
19 14 18 1
20 14 19 1
21 14 20 1
22 1 21 1
23 2 22 1
24 3 23 1
25 4 24 1
26 5 25 1
27 6 26 1
28 7 27 1
29 8 28 1
30 15 29 1
31 17 30 1

@<COSMOlogic>TOTAL_CHARGE
0.0
