# Created by COSMOvis on Mon Aug 09 22:24:22 CEST 2021
#
#

#
#

@<TRIPOS>MOLECULE
SAMPL8-20_micro017_c0
26 28
SMALL
USER_CHARGES

@<TRIPOS>ATOM
1 C -4.520800 0.034000 -0.528300 C 0 XO 0.000000
2 C -3.656100 0.782300 -1.336100 C 1 XO 0.000000
3 C -3.994500 -0.790400 0.473400 C 2 XO 0.000000
4 C -2.274100 0.706200 -1.142300 C 3 XO 0.000000
5 C -2.611600 -0.879700 0.658400 C 4 XO 0.000000
6 C 1.875900 -1.354700 0.321600 C 5 XO 0.000000
7 C 2.481200 -0.099700 0.476000 C 6 XO 0.000000
8 C -1.736500 -0.131800 -0.149000 C 7 XO 0.000000
9 C 0.507500 -1.364600 0.113400 C 8 XO 0.000000
10 C -0.260700 -0.149200 0.063100 C 9 XO 0.000000
11 C 1.659900 1.080300 0.384300 C 10 XO 0.000000
12 C 3.791700 0.391600 0.690700 C 11 XO 0.000000
13 N 0.318000 1.048600 0.184200 N 12 XO 0.000000
14 N 3.656400 1.741000 0.708700 N 13 XO 0.000000
15 N 2.373300 2.215200 0.526400 N 14 XO 0.000000
16 N 4.996600 -0.258600 0.767700 N 15 XO 0.000000
17 Cl -0.263600 -2.937700 -0.179200 Cl 16 XO 0.000000
18 H -5.600500 0.096600 -0.675400 H 17 XO 0.000000
19 H -4.058700 1.427800 -2.118900 H 18 XO 0.000000
20 H -4.663100 -1.365800 1.116500 H 19 XO 0.000000
21 H -1.599100 1.295100 -1.765500 H 20 XO 0.000000
22 H -2.213800 -1.517600 1.448400 H 21 XO 0.000000
23 H 2.443100 -2.285900 0.342000 H 22 XO 0.000000
24 H 5.760300 0.250700 1.209500 H 23 XO 0.000000
25 H 4.949100 -1.224700 1.083800 H 24 XO 0.000000
26 H 4.407400 2.414500 0.842000 H 25 XO 0.000000

@<TRIPOS>BOND
1 1 2 ar
2 1 3 ar
3 2 4 ar
4 3 5 ar
5 4 8 ar
6 5 8 ar
7 6 7 ar
8 6 9 ar
9 7 11 ar
10 7 12 ar
11 8 10 1
12 9 10 ar
13 9 17 1
14 10 13 ar
15 11 13 ar
16 11 15 ar
17 12 14 ar
18 12 16 1
19 14 15 ar
20 1 18 1
21 2 19 1
22 3 20 1
23 4 21 1
24 5 22 1
25 6 23 1
26 14 26 1
27 16 24 1
28 16 25 1

@<COSMOlogic>TOTAL_CHARGE
0.0
