# Created by COSMOvis on Mon Aug 09 22:24:20 CEST 2021
#
#

#
#

@<TRIPOS>MOLECULE
SAMPL8-12_extra008_c0
43 45
SMALL
USER_CHARGES

@<TRIPOS>ATOM
1 C -3.552900 5.951600 1.207600 C 0 XO 0.000000
2 C -3.060400 4.933800 0.208400 C 1 XO 0.000000
3 C -3.962600 4.111600 -0.490700 C 2 XO 0.000000
4 C -3.510800 3.148700 -1.395300 C 3 XO 0.000000
5 C -2.136800 2.976700 -1.633000 C 4 XO 0.000000
6 C -1.232100 3.793200 -0.939700 C 5 XO 0.000000
7 C -1.688900 4.757400 -0.034400 C 6 XO 0.000000
8 C -1.645900 1.929600 -2.613600 C 7 XO 0.000000
9 C -1.727700 2.356200 -4.073200 C 8 XO 0.000000
10 C -1.864500 3.683300 -4.380300 C 9 XO 0.000000
11 N -2.079100 4.145200 -5.648500 N 10 XO 0.000000
12 C -2.222200 3.302300 -6.693300 C 11 XO 0.000000
13 N -2.082400 1.978700 -6.424200 N 12 XO 0.000000
14 C -1.810700 1.433600 -5.178000 C 13 XO 0.000000
15 N -1.707100 0.102500 -5.124500 N 14 XO 0.000000
16 C -2.192900 -0.779400 -6.212800 C 15 XO 0.000000
17 C -2.837600 -2.026000 -5.595300 C 16 XO 0.000000
18 O -1.937600 -2.732500 -4.736600 O 17 XO 0.000000
19 C -1.529500 -1.882100 -3.655200 C 18 XO 0.000000
20 C -0.830000 -0.633800 -4.179500 C 19 XO 0.000000
21 N -2.468500 3.729400 -7.914600 N 20 XO 2.000000
22 H -3.745900 5.479700 2.184800 H 21 XO 0.000000
23 H -2.812400 6.747000 1.367000 H 22 XO 0.000000
24 H -4.495100 6.412300 0.878500 H 23 XO 0.000000
25 H -5.036100 4.225400 -0.321400 H 24 XO 0.000000
26 H -4.234700 2.521300 -1.921300 H 25 XO 0.000000
27 H -0.158500 3.675000 -1.106000 H 26 XO 0.000000
28 H -0.964200 5.382400 0.493000 H 27 XO 0.000000
29 H -2.246000 1.015700 -2.490300 H 28 XO 0.000000
30 H -0.606500 1.671200 -2.359400 H 29 XO 0.000000
31 H -1.850000 4.454100 -3.613500 H 30 XO 0.000000
32 H -2.175600 5.149700 -5.803600 H 31 XO 0.000000
33 H -2.084000 1.352600 -7.231200 H 32 XO 0.000000
34 H -1.347900 -1.055500 -6.861400 H 33 XO 0.000000
35 H -2.964400 -0.272000 -6.803700 H 34 XO 0.000000
36 H -3.744700 -1.732900 -5.036500 H 35 XO 0.000000
37 H -3.119900 -2.711100 -6.403800 H 36 XO 0.000000
38 H -2.404700 -1.607700 -3.038100 H 37 XO 0.000000
39 H -0.826500 -2.457700 -3.041400 H 38 XO 0.000000
40 H -0.503800 0.009600 -3.362800 H 39 XO 0.000000
41 H 0.062500 -0.923000 -4.756800 H 40 XO 0.000000
42 H -2.567600 3.083700 -8.694500 H 41 XO 0.000000
43 H -2.558600 4.723000 -8.114200 H 42 XO 0.000000

@<TRIPOS>BOND
1 1 2 1
2 2 3 ar
3 2 7 ar
4 3 4 ar
5 4 5 ar
6 5 6 ar
7 5 8 1
8 6 7 ar
9 8 9 1
10 9 10 ar
11 9 14 ar
12 10 11 ar
13 11 12 ar
14 12 13 ar
15 12 21 1
16 13 14 ar
17 14 15 1
18 15 16 1
19 15 20 1
20 16 17 1
21 17 18 1
22 18 19 1
23 19 20 1
24 1 22 1
25 1 23 1
26 1 24 1
27 3 25 1
28 4 26 1
29 6 27 1
30 7 28 1
31 8 29 1
32 8 30 1
33 10 31 1
34 11 32 1
35 13 33 1
36 16 34 1
37 16 35 1
38 17 36 1
39 17 37 1
40 19 38 1
41 19 39 1
42 20 40 1
43 20 41 1
44 21 42 1
45 21 43 1

@<COSMOlogic>TOTAL_CHARGE
2.0
