# Created by COSMOvis on Mon Aug 09 22:24:22 CEST 2021
#
#

#
#

@<TRIPOS>MOLECULE
SAMPL8-21_extra005_c0
41 42
SMALL
USER_CHARGES

@<TRIPOS>ATOM
1 C 1.637900 1.817900 -0.122200 C 0 XO 0.000000
2 C 1.224400 -0.462100 0.604100 C 1 XO 0.000000
3 C 0.765800 0.847800 0.394100 C 2 XO 0.000000
4 C -1.720500 0.316100 0.162600 C 3 XO 0.000000
5 C 2.971100 1.493500 -0.429600 C 4 XO 0.000000
6 C 2.551700 -0.784900 0.303200 C 5 XO 0.000000
7 C 3.432900 0.183800 -0.215900 C 6 XO 0.000000
8 C -1.893100 0.181600 -1.237500 C 7 XO 0.000000
9 C -2.615700 -0.420300 0.953800 C 8 XO 0.000000
10 C -3.617300 -1.228900 -0.879100 C 9 XO 0.000000
11 C 3.459500 3.719700 -1.190800 C 10 XO 0.000000
12 C 2.322700 -3.087700 0.986400 C 11 XO 0.000000
13 C -3.435600 -1.086000 3.108400 C 12 XO 0.000000
14 C -0.668300 1.229500 0.745300 C 13 XO 0.000000
15 N -2.872800 -0.614000 -1.768700 N 14 XO 0.000000
16 N -3.585000 -1.213800 0.440300 N 15 XO 0.000000
17 N -1.128700 0.859200 -2.126500 N 16 XO 0.000000
18 N -4.673000 -2.096900 -1.459100 N 17 XO 1.000000
19 O 4.733000 -0.137200 -0.518600 O 18 XO 0.000000
20 O 3.893400 2.369300 -0.941000 O 19 XO 0.000000
21 O 3.134600 -2.019600 0.461700 O 20 XO 0.000000
22 O -2.504400 -0.327000 2.291100 O 21 XO 0.000000
23 H 1.277500 2.835200 -0.273700 H 22 XO 0.000000
24 H 0.549100 -1.220100 0.999900 H 23 XO 0.000000
25 H 3.136900 4.212300 -0.260700 H 24 XO 0.000000
26 H 2.642400 3.744500 -1.927900 H 25 XO 0.000000
27 H 4.335300 4.237100 -1.595900 H 26 XO 0.000000
28 H 2.979400 -3.962100 1.030700 H 27 XO 0.000000
29 H 1.471800 -3.295800 0.320800 H 28 XO 0.000000
30 H 1.959500 -2.843600 1.995800 H 29 XO 0.000000
31 H -3.150600 -0.854700 4.138900 H 30 XO 0.000000
32 H -3.333000 -2.160700 2.913000 H 31 XO 0.000000
33 H -4.467100 -0.767000 2.913600 H 32 XO 0.000000
34 H -0.788800 1.251900 1.837200 H 33 XO 0.000000
35 H -0.854100 2.258500 0.393500 H 34 XO 0.000000
36 H -1.210800 0.616300 -3.110100 H 35 XO 0.000000
37 H -0.245100 1.264500 -1.825800 H 36 XO 0.000000
38 H -4.748400 -1.934600 -2.473100 H 37 XO 0.000000
39 H -5.589900 -1.909900 -1.028100 H 38 XO 0.000000
40 H 4.850800 -1.086200 -0.302900 H 39 XO 0.000000
41 H -4.462500 -3.095300 -1.311600 H 40 XO 0.000000

@<TRIPOS>BOND
1 1 3 ar
2 1 5 ar
3 2 3 ar
4 2 6 ar
5 3 14 1
6 4 8 ar
7 4 9 ar
8 4 14 1
9 5 7 ar
10 5 20 1
11 6 7 ar
12 6 21 1
13 7 19 1
14 8 15 ar
15 8 17 1
16 9 16 ar
17 9 22 1
18 10 15 ar
19 10 16 ar
20 10 18 1
21 11 20 1
22 12 21 1
23 13 22 1
24 1 23 1
25 2 24 1
26 11 25 1
27 11 26 1
28 11 27 1
29 12 28 1
30 12 29 1
31 12 30 1
32 13 31 1
33 13 32 1
34 13 33 1
35 14 34 1
36 14 35 1
37 17 36 1
38 17 37 1
39 18 38 1
40 18 39 1
41 18 41 1
42 19 40 1

@<COSMOlogic>TOTAL_CHARGE
1.0
