# Created by COSMOvis on Mon Aug 09 22:24:23 CEST 2021
#
#

#
#

@<TRIPOS>MOLECULE
SAMPL8-4_micro008_c0
26 27
SMALL
USER_CHARGES

@<TRIPOS>ATOM
1 C 6.179600 -3.412500 -3.086400 C 0 XO 0.000000
2 C 4.922900 -2.823900 -2.534500 C 1 XO 0.000000
3 C 3.703700 -2.589700 -3.137500 C 2 XO 0.000000
4 N 2.694400 -2.024300 -2.366300 N 3 XO -1.000000
5 C 3.081200 -1.790200 -1.113800 C 4 XO 0.000000
6 S 4.815600 -2.301000 -0.862000 S 5 XO 0.000000
7 N 2.473400 -1.289800 -0.039500 N 6 XO 0.000000
8 C 1.213900 -0.767200 -0.034500 C 7 XO 0.000000
9 C 0.700900 -0.339500 1.230600 C 8 XO 0.000000
10 C -0.553700 0.217300 1.359600 C 9 XO 0.000000
11 C -1.398200 0.396700 0.228800 C 10 XO 0.000000
12 C -2.682800 0.968200 0.376500 C 11 XO 0.000000
13 N -3.741500 1.445700 0.532600 N 12 XO 0.000000
14 C -0.890500 -0.020100 -1.023800 C 13 XO 0.000000
15 C 0.362500 -0.584900 -1.171200 C 14 XO 0.000000
16 Cl -1.901600 0.187200 -2.468300 Cl 15 XO 0.000000
17 C 3.336400 -2.894800 -4.537900 C 16 XO 0.000000
18 O 4.062000 -3.367300 -5.408800 O 17 XO 0.000000
19 O 2.037700 -2.595400 -4.817800 O 18 XO 0.000000
20 H 6.487200 -4.300800 -2.513300 H 19 XO 0.000000
21 H 7.010400 -2.691300 -3.038000 H 20 XO 0.000000
22 H 6.027800 -3.701500 -4.131900 H 21 XO 0.000000
23 H 1.336300 -0.465900 2.108400 H 22 XO 0.000000
24 H -0.916700 0.531100 2.339100 H 23 XO 0.000000
25 H 0.711900 -0.889500 -2.153400 H 24 XO 0.000000
26 H 1.669600 -2.237800 -3.962900 H 25 XO 0.000000

@<TRIPOS>BOND
1 1 2 1
2 2 3 2
3 2 6 1
4 3 4 1
5 3 17 1
6 4 5 1
7 5 6 1
8 5 7 2
9 7 8 1
10 8 9 ar
11 8 15 ar
12 9 10 ar
13 10 11 ar
14 11 12 1
15 11 14 ar
16 12 13 3
17 14 15 ar
18 14 16 1
19 17 18 2
20 17 19 1
21 1 20 1
22 1 21 1
23 1 22 1
24 9 23 1
25 10 24 1
26 15 25 1
27 19 26 1

@<COSMOlogic>TOTAL_CHARGE
-1.0
