# Created by COSMOvis on Mon Aug 09 22:24:21 CEST 2021
#
#

#
#

@<TRIPOS>MOLECULE
SAMPL8-15_micro003_c0
32 34
SMALL
USER_CHARGES

@<TRIPOS>ATOM
1 C 3.661800 0.298700 -1.842600 C 0 XO 0.000000
2 C -4.421700 0.581100 0.932800 C 1 XO 0.000000
3 C 4.690700 0.119600 -0.896300 C 2 XO 0.000000
4 C -3.494600 1.527800 1.379800 C 3 XO 0.000000
5 C 2.336500 0.340800 -1.436500 C 4 XO 0.000000
6 C -4.022200 -0.442400 0.067700 C 5 XO 0.000000
7 C 4.396700 -0.013500 0.453600 C 6 XO 0.000000
8 C -2.166900 1.445700 0.954100 C 7 XO 0.000000
9 C 2.015700 0.199700 -0.069800 C 8 XO 0.000000
10 C -2.693300 -0.561700 -0.367800 C 9 XO 0.000000
11 C 3.058800 0.023600 0.889000 C 10 XO 0.000000
12 C -1.779100 0.403100 0.101700 C 11 XO 0.000000
13 C 0.663700 0.213000 0.427000 C 12 XO 0.000000
14 C 1.575300 -0.080500 2.618600 C 13 XO 0.000000
15 C -2.264400 -1.668900 -1.293400 C 14 XO 0.000000
16 N 2.801700 -0.109700 2.248300 N 15 XO 0.000000
17 N 0.498300 0.077700 1.773700 N 16 XO 1.000000
18 N -0.413600 0.332200 -0.348500 N 17 XO 0.000000
19 Cl 1.139000 -0.237500 4.298100 Cl 18 XO 0.000000
20 H 3.906500 0.407800 -2.899000 H 19 XO 0.000000
21 H -5.462400 0.641600 1.254700 H 20 XO 0.000000
22 H 5.729000 0.088500 -1.228300 H 21 XO 0.000000
23 H -3.801000 2.337700 2.042400 H 22 XO 0.000000
24 H 1.559100 0.491100 -2.186900 H 23 XO 0.000000
25 H -4.754200 -1.175200 -0.277500 H 24 XO 0.000000
26 H 5.182700 -0.148200 1.196700 H 25 XO 0.000000
27 H -1.441400 2.202000 1.258500 H 26 XO 0.000000
28 H -1.948500 -1.276800 -2.273400 H 27 XO 0.000000
29 H -3.091500 -2.368000 -1.466600 H 28 XO 0.000000
30 H -1.415900 -2.234300 -0.880300 H 29 XO 0.000000
31 H -0.251500 0.372500 -1.354800 H 30 XO 0.000000
32 H -0.451800 0.049500 2.156200 H 31 XO 0.000000

@<TRIPOS>BOND
1 1 3 ar
2 1 5 ar
3 2 4 ar
4 2 6 ar
5 3 7 ar
6 4 8 ar
7 5 9 ar
8 6 10 ar
9 7 11 ar
10 8 12 ar
11 9 11 ar
12 9 13 1
13 10 12 ar
14 10 15 1
15 11 16 1
16 12 18 1
17 13 17 2
18 13 18 1
19 14 16 2
20 14 17 1
21 14 19 1
22 1 20 1
23 2 21 1
24 3 22 1
25 4 23 1
26 5 24 1
27 6 25 1
28 7 26 1
29 8 27 1
30 15 28 1
31 15 29 1
32 15 30 1
33 17 32 1
34 18 31 1

@<COSMOlogic>TOTAL_CHARGE
1.0
