# Created by COSMOvis on Mon Aug 09 22:24:22 CEST 2021
#
#

#
#

@<TRIPOS>MOLECULE
SAMPL8-19_micro025_c0
46 49
SMALL
USER_CHARGES

@<TRIPOS>ATOM
1 C 1.585000 0.011300 2.109900 C 0 XO 0.000000
2 N 1.810200 -1.162000 1.278800 N 1 XO 0.000000
3 C 2.286600 -1.172700 -0.035800 C 2 XO 0.000000
4 C 2.686200 -0.146600 -0.890400 C 3 XO 0.000000
5 C 3.132500 -0.511400 -2.171900 C 4 XO 0.000000
6 C 3.173300 -1.854100 -2.577500 C 5 XO 0.000000
7 C 2.768200 -2.888400 -1.717400 C 6 XO 0.000000
8 C 2.325700 -2.524900 -0.448300 C 7 XO 0.000000
9 N 1.859500 -3.275900 0.625000 N 8 XO 0.000000
10 C 1.541900 -2.456700 1.687700 C 9 XO 0.000000
11 C 1.029100 -2.828700 2.922800 C 10 XO 0.000000
12 S 0.952800 -4.527100 3.382000 S 11 XO 0.000000
13 C -0.791500 -4.944700 3.148100 C 12 XO 0.000000
14 N -1.612700 -3.956900 2.717900 N 13 XO 0.000000
15 C -2.952800 -4.201100 2.544700 C 14 XO 0.000000
16 C -3.459900 -5.439500 2.802500 C 15 XO 0.000000
17 C -2.539400 -6.490700 3.262700 C 16 XO 0.000000
18 O -2.933200 -7.649600 3.513200 O 17 XO 0.000000
19 N -1.188700 -6.162300 3.419200 N 18 XO 0.000000
20 C -4.918100 -5.805200 2.650500 C 19 XO 0.000000
21 C -5.822900 -4.689300 2.197500 C 20 XO 0.000000
22 C -6.455800 -3.824000 3.094000 C 21 XO 0.000000
23 N -7.271600 -2.826600 2.705900 N 22 XO 0.000000
24 C -7.450800 -2.702300 1.384900 C 23 XO 0.000000
25 N -6.914700 -3.471300 0.419100 N 24 XO 0.000000
26 C -6.107500 -4.452300 0.843400 C 25 XO 0.000000
27 O -8.250300 -1.723100 0.911500 O 26 XO 0.000000
28 C -8.867300 -0.836500 1.879500 C 27 XO 0.000000
29 H 2.153300 -0.068300 3.046900 H 28 XO 0.000000
30 H 0.515800 0.124300 2.340500 H 29 XO 0.000000
31 H 1.925800 0.898900 1.568400 H 30 XO 0.000000
32 H 2.658200 0.899500 -0.584700 H 31 XO 0.000000
33 H 3.452900 0.269800 -2.862600 H 32 XO 0.000000
34 H 3.525700 -2.103900 -3.579300 H 33 XO 0.000000
35 H 2.797800 -3.932700 -2.029600 H 34 XO 0.000000
36 H 1.794900 -4.288900 0.667600 H 35 XO 0.000000
37 H 0.912300 -2.084900 3.707400 H 36 XO 0.000000
38 H -1.187300 -3.035700 2.540900 H 37 XO 0.000000
39 H -3.544300 -3.354100 2.201000 H 38 XO 0.000000
40 H -5.272900 -6.203300 3.615300 H 39 XO 0.000000
41 H -4.989100 -6.651100 1.946800 H 40 XO 0.000000
42 H -6.314300 -3.935000 4.173400 H 41 XO 0.000000
43 H -5.673100 -5.087800 0.065300 H 42 XO 0.000000
44 H -8.102300 -0.303700 2.458800 H 43 XO 0.000000
45 H -9.520200 -1.399200 2.559000 H 44 XO 0.000000
46 H -9.453200 -0.132800 1.280500 H 45 XO 0.000000

@<TRIPOS>BOND
1 1 2 1
2 2 3 1
3 2 10 1
4 3 4 ar
5 3 8 ar
6 4 5 ar
7 5 6 ar
8 6 7 ar
9 7 8 ar
10 8 9 1
11 9 10 1
12 10 11 2
13 11 12 1
14 12 13 1
15 13 14 1
16 13 19 2
17 14 15 1
18 15 16 2
19 16 17 1
20 16 20 1
21 17 18 2
22 17 19 1
23 20 21 1
24 21 22 ar
25 21 26 ar
26 22 23 ar
27 23 24 ar
28 24 25 ar
29 24 27 1
30 25 26 ar
31 27 28 1
32 1 29 1
33 1 30 1
34 1 31 1
35 4 32 1
36 5 33 1
37 6 34 1
38 7 35 1
39 9 36 1
40 11 37 1
41 14 38 1
42 15 39 1
43 20 40 1
44 20 41 1
45 22 42 1
46 26 43 1
47 28 44 1
48 28 45 1
49 28 46 1

@<COSMOlogic>TOTAL_CHARGE
0.0
