# Created by COSMOvis on Mon Aug 09 22:24:21 CEST 2021
#
#

#
#

@<TRIPOS>MOLECULE
SAMPL8-19_micro002_c0
48 51
SMALL
USER_CHARGES

@<TRIPOS>ATOM
1 C -8.268400 -0.236000 -0.298100 C 0 XO 0.000000
2 C -7.929800 -1.581900 -0.569800 C 1 XO 0.000000
3 C -7.296700 0.740100 -0.091400 C 2 XO 0.000000
4 C -6.605200 -2.007500 -0.645000 C 3 XO 0.000000
5 C 5.761600 1.432200 -0.410300 C 4 XO 0.000000
6 C 5.186100 -0.460400 0.883400 C 5 XO 0.000000
7 C 5.031400 0.916500 0.661300 C 6 XO 0.000000
8 C -5.967700 0.313900 -0.165100 C 7 XO 0.000000
9 C -5.628700 -1.029100 -0.436800 C 8 XO 0.000000
10 C -3.740000 0.131000 -0.192400 C 9 XO 0.000000
11 C 6.622300 -0.620900 -0.869700 C 10 XO 0.000000
12 C 2.083400 0.844300 2.603500 C 11 XO 0.000000
13 C 2.705600 1.384000 1.519800 C 12 XO 0.000000
14 C 1.935500 1.589100 0.300900 C 13 XO 0.000000
15 C -0.007900 0.615600 1.478400 C 14 XO 0.000000
16 C -3.469800 -2.326200 -0.691200 C 15 XO 0.000000
17 C 8.150400 -0.865400 -2.695700 C 16 XO 0.000000
18 C 4.155800 1.791100 1.537600 C 17 XO 0.000000
19 C -2.311000 0.515200 -0.116200 C 18 XO 0.000000
20 N 6.562400 0.678800 -1.185200 N 19 XO 0.000000
21 N 5.972700 -1.241700 0.133500 N 20 XO 0.000000
22 N -4.765500 0.987300 -0.018000 N 21 XO 1.000000
23 N 0.566100 1.150200 0.394400 N 22 XO 1.000000
24 N -4.234500 -1.100900 -0.442900 N 23 XO 0.000000
25 N 0.754900 0.471500 2.574500 N 24 XO 0.000000
26 O 2.324900 2.084000 -0.747400 O 25 XO 0.000000
27 O 7.401200 -1.447000 -1.597700 O 26 XO 0.000000
28 S -1.675200 0.087200 1.588900 S 27 XO 0.000000
29 H -9.320700 0.045000 -0.249200 H 28 XO 0.000000
30 H -8.728500 -2.307900 -0.724000 H 29 XO 0.000000
31 H -7.553700 1.777800 0.117500 H 30 XO 0.000000
32 H -6.349000 -3.045300 -0.854400 H 31 XO 0.000000
33 H 5.708800 2.495500 -0.661700 H 32 XO 0.000000
34 H 4.657300 -0.960500 1.700500 H 33 XO 0.000000
35 H 2.577600 0.676400 3.558400 H 34 XO 0.000000
36 H -2.399100 -2.109600 -0.649500 H 35 XO 0.000000
37 H -3.722100 -2.710800 -1.686100 H 36 XO 0.000000
38 H -3.718900 -3.068200 0.076000 H 37 XO 0.000000
39 H 8.842300 -0.097200 -2.327100 H 38 XO 0.000000
40 H 7.471200 -0.426300 -3.437600 H 39 XO 0.000000
41 H 8.703700 -1.703000 -3.130900 H 40 XO 0.000000
42 H 4.517200 1.767500 2.575700 H 41 XO 0.000000
43 H 4.236100 2.832700 1.191900 H 42 XO 0.000000
44 H -1.727600 -0.032700 -0.865400 H 43 XO 0.000000
45 H -2.220100 1.596000 -0.269600 H 44 XO 0.000000
46 H 0.343300 0.073900 3.420700 H 45 XO 0.000000
47 H -4.656400 1.982700 0.173200 H 46 XO 0.000000
48 H 0.024700 1.286400 -0.461600 H 47 XO 0.000000

@<TRIPOS>BOND
1 1 2 ar
2 1 3 ar
3 2 4 ar
4 3 8 ar
5 4 9 ar
6 5 7 ar
7 5 20 ar
8 6 7 ar
9 6 21 ar
10 7 18 1
11 8 9 ar
12 8 22 1
13 9 24 1
14 10 19 1
15 10 22 2
16 10 24 1
17 11 20 ar
18 11 21 ar
19 11 27 1
20 12 13 2
21 12 25 1
22 13 14 1
23 13 18 1
24 14 23 1
25 14 26 2
26 15 23 2
27 15 25 1
28 15 28 1
29 16 24 1
30 17 27 1
31 19 28 1
32 1 29 1
33 2 30 1
34 3 31 1
35 4 32 1
36 5 33 1
37 6 34 1
38 12 35 1
39 16 36 1
40 16 37 1
41 16 38 1
42 17 39 1
43 17 40 1
44 17 41 1
45 18 42 1
46 18 43 1
47 19 44 1
48 19 45 1
49 22 47 1
50 23 48 1
51 25 46 1

@<COSMOlogic>TOTAL_CHARGE
2.0
