# Created by COSMOvis on Mon Aug 09 22:24:20 CEST 2021
#
#

#
#

@<TRIPOS>MOLECULE
SAMPL8-13_extra001_c0
50 53
SMALL
USER_CHARGES

@<TRIPOS>ATOM
1 C -1.863700 4.536600 -2.278600 C 0 XO 0.000000
2 C -1.503900 5.310800 -1.170200 C 1 XO 0.000000
3 C -2.363800 3.247800 -2.092500 C 2 XO 0.000000
4 C 5.280100 -0.359700 1.418700 C 3 XO 0.000000
5 C 6.039900 -0.350600 0.251100 C 4 XO 0.000000
6 C -1.644200 4.793100 0.119400 C 5 XO 0.000000
7 C 4.015200 -0.366100 -1.167600 C 6 XO 0.000000
8 C -0.376100 0.228300 -0.456600 C 7 XO 0.000000
9 C 1.767200 -0.385300 1.664300 C 8 XO 0.000000
10 C -2.510600 2.696800 -0.807200 C 9 XO 0.000000
11 C 3.885200 -0.379000 1.296300 C 10 XO 0.000000
12 C 3.275300 -0.391400 0.013400 C 11 XO 0.000000
13 C -1.278500 -0.062900 -1.510300 C 12 XO 0.000000
14 C 5.401700 -0.354900 -1.004100 C 13 XO 0.000000
15 C -2.143200 3.499300 0.283700 C 14 XO 0.000000
16 C -0.733400 -0.912700 -2.489000 C 15 XO 0.000000
17 C 0.832700 -0.415300 -0.627600 C 16 XO 0.000000
18 C -1.334100 -1.359800 -3.698100 C 17 XO 0.000000
19 C -4.602800 1.264700 -0.828600 C 18 XO 0.000000
20 C 6.942700 -2.052300 -2.749200 C 19 XO 0.000000
21 C -3.095200 1.308400 -0.635700 C 20 XO 0.000000
22 N 2.914600 -0.378000 2.295800 N 21 XO 0.000000
23 N 1.897100 -0.389900 0.273000 N 22 XO 0.000000
24 N -2.576400 -1.055900 -4.031300 N 23 XO 1.000000
25 O -0.568900 -2.109500 -4.480900 O 24 XO 0.000000
26 O 5.564600 0.077400 -3.656300 O 25 XO 0.000000
27 O 7.659500 0.486100 -2.201400 O 26 XO 0.000000
28 O -2.537300 0.389700 -1.655500 O 27 XO 0.000000
29 S 0.908000 -1.400100 -2.073100 S 28 XO 0.000000
30 S 6.434300 -0.330200 -2.500500 S 29 XO 0.000000
31 Cl -2.307700 2.884200 1.944500 Cl 30 XO 0.000000
32 H -1.757100 4.937000 -3.287500 H 31 XO 0.000000
33 H -1.112600 6.320400 -1.302800 H 32 XO 0.000000
34 H -2.642100 2.644700 -2.958300 H 33 XO 0.000000
35 H 5.754900 -0.342900 2.399800 H 34 XO 0.000000
36 H 7.128100 -0.323800 0.308100 H 35 XO 0.000000
37 H -1.367300 5.385100 0.991600 H 36 XO 0.000000
38 H 3.567000 -0.334600 -2.160700 H 37 XO 0.000000
39 H -0.583300 0.891000 0.379500 H 38 XO 0.000000
40 H 0.784400 -0.415700 2.128400 H 39 XO 0.000000
41 H -4.977600 0.241900 -0.691600 H 40 XO 0.000000
42 H -4.879500 1.627600 -1.828000 H 41 XO 0.000000
43 H -5.079700 1.914400 -0.082300 H 42 XO 0.000000
44 H 7.572300 -2.056000 -3.647100 H 43 XO 0.000000
45 H 6.040900 -2.657300 -2.894200 H 44 XO 0.000000
46 H 7.507400 -2.375900 -1.868100 H 45 XO 0.000000
47 H -2.833000 0.895200 0.347100 H 46 XO 0.000000
48 H -3.144200 -0.495300 -3.394300 H 47 XO 0.000000
49 H -2.997300 -1.381100 -4.899900 H 48 XO 0.000000
50 H -1.031600 -2.404200 -5.292900 H 49 XO 0.000000

@<TRIPOS>BOND
1 1 2 ar
2 1 3 ar
3 2 6 ar
4 3 10 ar
5 4 5 ar
6 4 11 ar
7 5 14 ar
8 6 15 ar
9 7 12 ar
10 7 14 ar
11 8 13 ar
12 8 17 ar
13 9 22 ar
14 9 23 ar
15 10 15 ar
16 10 21 1
17 11 12 ar
18 11 22 ar
19 12 23 ar
20 13 16 ar
21 13 28 1
22 14 30 1
23 15 31 1
24 16 18 1
25 16 29 ar
26 17 23 1
27 17 29 ar
28 18 24 2
29 18 25 1
30 19 21 1
31 20 30 1
32 21 28 1
33 26 30 2
34 27 30 2
35 1 32 1
36 2 33 1
37 3 34 1
38 4 35 1
39 5 36 1
40 6 37 1
41 7 38 1
42 8 39 1
43 9 40 1
44 19 41 1
45 19 42 1
46 19 43 1
47 20 44 1
48 20 45 1
49 20 46 1
50 21 47 1
51 24 48 1
52 24 49 1
53 25 50 1

@<COSMOlogic>TOTAL_CHARGE
1.0
