# Created by COSMOvis on Mon Aug 09 22:24:22 CEST 2021
#
#

#
#

@<TRIPOS>MOLECULE
SAMPL8-21_extra004_c0
41 42
SMALL
USER_CHARGES

@<TRIPOS>ATOM
1 C 1.290800 0.741700 -1.351700 C 0 XO 0.000000
2 C 1.469200 -1.072200 0.257900 C 1 XO 0.000000
3 C 0.682900 -0.262100 -0.579400 C 2 XO 0.000000
4 C -1.531600 -0.553200 0.657300 C 3 XO 0.000000
5 C 2.683500 0.935000 -1.308800 C 4 XO 0.000000
6 C 2.853800 -0.879700 0.301000 C 5 XO 0.000000
7 C 3.471000 0.119900 -0.477500 C 6 XO 0.000000
8 C -1.454000 0.423700 1.635800 C 7 XO 0.000000
9 C -2.368900 -1.636100 1.060200 C 8 XO 0.000000
10 C -2.791300 -0.665300 3.092600 C 9 XO 0.000000
11 C 2.598300 2.739700 -2.892800 C 10 XO 0.000000
12 C 3.214700 -2.634200 1.915900 C 11 XO 0.000000
13 C -3.362100 -3.758300 0.567300 C 12 XO 0.000000
14 C -0.822400 -0.487900 -0.678800 C 13 XO 0.000000
15 N -2.030100 0.427000 2.831600 N 14 XO 0.000000
16 N -2.981800 -1.700200 2.237000 N 15 XO 0.000000
17 N -0.645600 1.636800 1.373300 N 16 XO 1.000000
18 N -3.416100 -0.719600 4.287500 N 17 XO 0.000000
19 O 4.826600 0.311900 -0.428100 O 18 XO 0.000000
20 O 3.364600 1.883200 -2.023000 O 19 XO 0.000000
21 O 3.740500 -1.596700 1.064400 O 20 XO 0.000000
22 O -2.526200 -2.635400 0.176800 O 21 XO 0.000000
23 H 0.675300 1.360400 -2.004200 H 22 XO 0.000000
24 H 1.002600 -1.851800 0.858800 H 23 XO 0.000000
25 H 3.328600 3.408100 -3.360000 H 24 XO 0.000000
26 H 1.867300 3.332400 -2.322200 H 25 XO 0.000000
27 H 2.081900 2.155900 -3.669800 H 26 XO 0.000000
28 H 4.082200 -3.063000 2.426700 H 27 XO 0.000000
29 H 2.711700 -3.410600 1.320700 H 28 XO 0.000000
30 H 2.516900 -2.215000 2.656200 H 29 XO 0.000000
31 H -3.340300 -4.432600 -0.293700 H 30 XO 0.000000
32 H -4.385900 -3.420300 0.769400 H 31 XO 0.000000
33 H -2.949900 -4.251000 1.456500 H 32 XO 0.000000
34 H -1.263800 0.311300 -1.296300 H 33 XO 0.000000
35 H -1.020200 -1.425300 -1.216900 H 34 XO 0.000000
36 H 0.197500 1.415800 0.803800 H 35 XO 0.000000
37 H -0.343500 2.056300 2.265300 H 36 XO 0.000000
38 H -3.248800 0.000300 4.981700 H 37 XO 0.000000
39 H -3.938200 -1.548400 4.549300 H 38 XO 0.000000
40 H 5.187600 -0.344600 0.204200 H 39 XO 0.000000
41 H -1.189600 2.354300 0.870700 H 40 XO 0.000000

@<TRIPOS>BOND
1 1 3 ar
2 1 5 ar
3 2 3 ar
4 2 6 ar
5 3 14 1
6 4 8 ar
7 4 9 ar
8 4 14 1
9 5 7 ar
10 5 20 1
11 6 7 ar
12 6 21 1
13 7 19 1
14 8 15 ar
15 8 17 1
16 9 16 ar
17 9 22 1
18 10 15 ar
19 10 16 ar
20 10 18 1
21 11 20 1
22 12 21 1
23 13 22 1
24 1 23 1
25 2 24 1
26 11 25 1
27 11 26 1
28 11 27 1
29 12 28 1
30 12 29 1
31 12 30 1
32 13 31 1
33 13 32 1
34 13 33 1
35 14 34 1
36 14 35 1
37 17 36 1
38 17 37 1
39 17 41 1
40 18 38 1
41 18 39 1
42 19 40 1

@<COSMOlogic>TOTAL_CHARGE
1.0
