# Created by COSMOvis on Mon Aug 09 22:24:21 CEST 2021
#
#

#
#

@<TRIPOS>MOLECULE
SAMPL8-15_micro002_c0
31 33
SMALL
USER_CHARGES

@<TRIPOS>ATOM
1 C -2.010700 1.709200 1.858900 C 0 XO 0.000000
2 C -2.542800 0.514300 1.112100 C 1 XO 0.000000
3 C -3.814500 -0.009700 1.384900 C 2 XO 0.000000
4 C -4.319500 -1.119900 0.697000 C 3 XO 0.000000
5 C -3.541200 -1.730200 -0.291600 C 4 XO 0.000000
6 C -2.267800 -1.231500 -0.581500 C 5 XO 0.000000
7 C -1.756200 -0.115600 0.113100 C 6 XO 0.000000
8 N -0.516300 0.455200 -0.242500 N 7 XO 0.000000
9 C 0.597400 -0.175300 -0.073400 C 8 XO 0.000000
10 C 1.897900 0.360200 -0.492500 C 9 XO 0.000000
11 C 2.000500 1.600300 -1.145900 C 10 XO 0.000000
12 C 3.244100 2.088000 -1.536800 C 11 XO 0.000000
13 C 4.406900 1.340500 -1.277600 C 12 XO 0.000000
14 C 4.323200 0.110900 -0.631500 C 13 XO 0.000000
15 C 3.071800 -0.395100 -0.231400 C 14 XO 0.000000
16 N 3.035800 -1.637400 0.418400 N 15 XO 0.000000
17 C 1.875700 -2.064000 0.762100 C 16 XO 0.000000
18 N 0.685200 -1.434800 0.553700 N 17 XO 0.000000
19 Cl 1.730600 -3.616000 1.592100 Cl 18 XO 0.000000
20 H -1.660200 2.485700 1.162000 H 19 XO 0.000000
21 H -1.147100 1.440500 2.487500 H 20 XO 0.000000
22 H -2.782800 2.140600 2.509800 H 21 XO 0.000000
23 H -4.423700 0.470900 2.154800 H 22 XO 0.000000
24 H -5.316000 -1.499800 0.928700 H 23 XO 0.000000
25 H -3.923800 -2.590100 -0.844900 H 24 XO 0.000000
26 H -1.667000 -1.688700 -1.371000 H 25 XO 0.000000
27 H 1.089000 2.167300 -1.337600 H 26 XO 0.000000
28 H 3.316100 3.051200 -2.043700 H 27 XO 0.000000
29 H 5.381100 1.724800 -1.583900 H 28 XO 0.000000
30 H 5.215800 -0.480300 -0.422600 H 29 XO 0.000000
31 H -0.181800 -1.870900 0.872800 H 30 XO 0.000000

@<TRIPOS>BOND
1 1 2 1
2 2 3 ar
3 2 7 ar
4 3 4 ar
5 4 5 ar
6 5 6 ar
7 6 7 ar
8 7 8 1
9 8 9 2
10 9 10 1
11 9 18 1
12 10 11 ar
13 10 15 ar
14 11 12 ar
15 12 13 ar
16 13 14 ar
17 14 15 ar
18 15 16 1
19 16 17 2
20 17 18 1
21 17 19 1
22 1 20 1
23 1 21 1
24 1 22 1
25 3 23 1
26 4 24 1
27 5 25 1
28 6 26 1
29 11 27 1
30 12 28 1
31 13 29 1
32 14 30 1
33 18 31 1

@<COSMOlogic>TOTAL_CHARGE
0.0
