# Created by COSMOvis on Mon Aug 09 22:24:20 CEST 2021
#
#

#
#

@<TRIPOS>MOLECULE
SAMPL8-11_micro004_c0
43 45
SMALL
USER_CHARGES

@<TRIPOS>ATOM
1 C 4.449300 2.427300 -3.943100 C 0 XO 0.000000
2 N 3.826700 3.750300 -3.658500 N 1 XO 0.000000
3 C 3.150700 4.019100 -2.462200 C 2 XO 0.000000
4 C 3.279700 3.199500 -1.291600 C 3 XO 0.000000
5 C 2.427700 3.545100 -0.234100 C 4 XO 0.000000
6 C 1.617800 4.686000 -0.261100 C 5 XO 0.000000
7 N 1.587000 5.517100 -1.291900 N 6 XO 0.000000
8 C 2.345100 5.196000 -2.375500 C 7 XO 0.000000
9 C 2.344500 6.110000 -3.463900 C 8 XO 0.000000
10 C 3.110800 5.874400 -4.570300 C 9 XO 0.000000
11 C 3.845600 4.672700 -4.652700 C 10 XO 0.000000
12 O 4.575800 4.348600 -5.713200 O 11 XO 0.000000
13 F 2.386300 2.772500 0.876900 F 12 XO 1.000000
14 O 4.158500 2.185800 -1.275300 O 13 XO 0.000000
15 C 4.787300 1.761100 -0.005300 C 14 XO 0.000000
16 C 6.058700 1.000000 -0.342700 C 15 XO 0.000000
17 C 6.831000 0.714000 0.961200 C 16 XO 0.000000
18 C 8.118600 -0.076000 0.684100 C 17 XO 0.000000
19 C 7.849500 -1.388600 -0.074600 C 18 XO 0.000000
20 C 7.069900 -1.103600 -1.364100 C 19 XO 0.000000
21 C 5.781700 -0.312600 -1.095900 C 20 XO 0.000000
22 N 9.069600 -2.163400 -0.388400 N 21 XO 0.000000
23 H 3.858700 1.653400 -3.454400 H 22 XO 0.000000
24 H 5.480500 2.410500 -3.577200 H 23 XO 0.000000
25 H 4.435700 2.276800 -5.024100 H 24 XO 0.000000
26 H 0.991400 4.909700 0.606300 H 25 XO 0.000000
27 H 1.732300 7.008000 -3.379900 H 26 XO 0.000000
28 H 3.152000 6.571300 -5.406600 H 27 XO 0.000000
29 H 4.491100 5.033600 -6.407700 H 28 XO 0.000000
30 H 5.007700 2.664500 0.581100 H 29 XO 0.000000
31 H 4.079000 1.125100 0.541600 H 30 XO 0.000000
32 H 6.687800 1.652200 -0.974700 H 31 XO 0.000000
33 H 7.069900 1.658600 1.475700 H 32 XO 0.000000
34 H 6.185200 0.133900 1.644300 H 33 XO 0.000000
35 H 8.635300 -0.296600 1.632700 H 34 XO 0.000000
36 H 8.807700 0.541300 0.079400 H 35 XO 0.000000
37 H 7.222800 -2.033300 0.568000 H 36 XO 0.000000
38 H 6.835200 -2.053100 -1.870300 H 37 XO 0.000000
39 H 7.719700 -0.528300 -2.049100 H 38 XO 0.000000
40 H 5.093200 -0.927900 -0.488700 H 39 XO 0.000000
41 H 5.264600 -0.108300 -2.045600 H 40 XO 0.000000
42 H 9.587500 -2.340100 0.479000 H 41 XO 0.000000
43 H 9.693200 -1.580300 -0.958400 H 42 XO 0.000000

@<TRIPOS>BOND
1 1 2 1
2 2 3 1
3 2 11 1
4 3 4 2
5 3 8 1
6 4 5 1
7 4 14 1
8 5 6 1
9 5 13 2
10 6 7 2
11 7 8 1
12 8 9 2
13 9 10 1
14 10 11 2
15 11 12 1
16 14 15 1
17 15 16 1
18 16 17 1
19 16 21 1
20 17 18 1
21 18 19 1
22 19 20 1
23 19 22 1
24 20 21 1
25 1 23 1
26 1 24 1
27 1 25 1
28 6 26 1
29 9 27 1
30 10 28 1
31 12 29 1
32 15 30 1
33 15 31 1
34 16 32 1
35 17 33 1
36 17 34 1
37 18 35 1
38 18 36 1
39 19 37 1
40 20 38 1
41 20 39 1
42 21 40 1
43 21 41 1
44 22 42 1
45 22 43 1

@<COSMOlogic>TOTAL_CHARGE
1.0
