# Created by COSMOvis on Mon Aug 09 22:24:21 CEST 2021
#
#

#
#

@<TRIPOS>MOLECULE
SAMPL8-16_micro000_c0
35 36
SMALL
USER_CHARGES

@<TRIPOS>ATOM
1 C 3.581700 1.605900 1.695600 C 0 XO 0.000000
2 C 2.175000 1.689500 1.587600 C 1 XO 0.000000
3 C 4.192200 0.909800 2.740700 C 2 XO 0.000000
4 C 1.331200 1.080200 2.519800 C 3 XO 0.000000
5 C 3.363900 0.289300 3.689100 C 4 XO 0.000000
6 C 1.948300 0.382900 3.564300 C 5 XO 0.000000
7 C 2.532100 -0.800100 5.355300 C 6 XO 0.000000
8 C 0.283600 -0.811300 7.656900 C 7 XO 0.000000
9 C -2.456300 -1.162000 8.988200 C 8 XO 0.000000
10 C -1.549700 0.665700 10.465400 C 9 XO 0.000000
11 C -1.999000 1.156100 8.035700 C 10 XO 0.000000
12 C 2.351200 -1.639900 6.588500 C 11 XO 0.000000
13 C -1.578800 0.090000 9.049000 C 12 XO 0.000000
14 N 3.696300 -0.454100 4.821100 N 13 XO 0.000000
15 N 1.454800 -0.331800 4.640700 N 14 XO 0.000000
16 N 1.636500 -0.961700 7.669200 N 15 XO 0.000000
17 O -0.430100 -1.125200 6.694000 O 16 XO 0.000000
18 O -0.142200 -0.282000 8.831200 O 17 XO 0.000000
19 H 4.201600 2.097600 0.943800 H 18 XO 0.000000
20 H 1.736700 2.243300 0.755500 H 19 XO 0.000000
21 H 5.278700 0.846300 2.822700 H 20 XO 0.000000
22 H 0.245800 1.146600 2.434300 H 21 XO 0.000000
23 H -3.480100 -0.896900 9.289800 H 22 XO 0.000000
24 H -2.486200 -1.581300 7.976300 H 23 XO 0.000000
25 H -2.083800 -1.926800 9.684800 H 24 XO 0.000000
26 H -2.561500 0.981400 10.754500 H 25 XO 0.000000
27 H -0.885200 1.539500 10.517900 H 26 XO 0.000000
28 H -1.202500 -0.088000 11.185900 H 27 XO 0.000000
29 H -1.312800 2.014600 8.071800 H 28 XO 0.000000
30 H -2.020300 0.755000 7.015900 H 29 XO 0.000000
31 H -3.006600 1.515200 8.290400 H 30 XO 0.000000
32 H 1.814700 -2.566000 6.328000 H 31 XO 0.000000
33 H 3.342500 -1.916900 6.962200 H 32 XO 0.000000
34 H 0.484700 -0.490300 4.926100 H 33 XO 0.000000
35 H 2.158100 -0.643100 8.480700 H 34 XO 0.000000

@<TRIPOS>BOND
1 1 2 ar
2 1 3 ar
3 2 4 ar
4 3 5 ar
5 4 6 ar
6 5 6 ar
7 5 14 ar
8 6 15 ar
9 7 12 1
10 7 14 ar
11 7 15 ar
12 8 16 1
13 8 17 2
14 8 18 1
15 9 13 1
16 10 13 1
17 11 13 1
18 12 16 1
19 13 18 1
20 1 19 1
21 2 20 1
22 3 21 1
23 4 22 1
24 9 23 1
25 9 24 1
26 9 25 1
27 10 26 1
28 10 27 1
29 10 28 1
30 11 29 1
31 11 30 1
32 11 31 1
33 12 32 1
34 12 33 1
35 15 34 1
36 16 35 1

@<COSMOlogic>TOTAL_CHARGE
0.0
