# Created by COSMOvis on Mon Aug 09 22:24:20 CEST 2021
#
#

#
#

@<TRIPOS>MOLECULE
SAMPL8-12_micro001_c0
40 42
SMALL
USER_CHARGES

@<TRIPOS>ATOM
1 C 6.084400 -0.604900 -0.610000 C 0 XO 0.000000
2 C 4.578800 -0.506100 -0.671200 C 1 XO 0.000000
3 C 3.796200 -0.623700 0.493300 C 2 XO 0.000000
4 C 2.402400 -0.557100 0.437700 C 3 XO 0.000000
5 C 1.731800 -0.372200 -0.784700 C 4 XO 0.000000
6 C 2.510000 -0.256200 -1.945400 C 5 XO 0.000000
7 C 3.908800 -0.319100 -1.889600 C 6 XO 0.000000
8 C 0.217100 -0.303200 -0.840500 C 7 XO 0.000000
9 C -0.375100 0.974800 -0.265100 C 8 XO 0.000000
10 C 0.320800 2.188700 -0.302200 C 9 XO 0.000000
11 N -0.047100 3.330600 0.287700 N 10 XO 0.000000
12 C -1.215400 3.288400 1.040600 C 11 XO 0.000000
13 N -2.016000 2.149300 1.072000 N 12 XO 0.000000
14 C -1.615700 1.045400 0.436100 C 13 XO 0.000000
15 N -2.454500 -0.086300 0.532800 N 14 XO 0.000000
16 C -2.931600 -0.695000 -0.722900 C 15 XO 0.000000
17 C -3.501400 -2.081000 -0.447700 C 16 XO 0.000000
18 O -4.565600 -2.033000 0.520000 O 17 XO 0.000000
19 C -4.089700 -1.435700 1.742400 C 18 XO 0.000000
20 C -3.545100 -0.029700 1.515100 C 19 XO 0.000000
21 N -1.561200 4.380000 1.714500 N 20 XO -1.000000
22 H 6.409200 -1.654700 -0.523900 H 21 XO 0.000000
23 H 6.487300 -0.070700 0.262800 H 22 XO 0.000000
24 H 6.549200 -0.189100 -1.514500 H 23 XO 0.000000
25 H 4.288800 -0.771400 1.458200 H 24 XO 0.000000
26 H 1.822100 -0.649300 1.359700 H 25 XO 0.000000
27 H 2.016300 -0.112400 -2.910300 H 26 XO 0.000000
28 H 4.487800 -0.220000 -2.811700 H 27 XO 0.000000
29 H -0.091600 -0.457700 -1.890000 H 28 XO 0.000000
30 H -0.196500 -1.154400 -0.274100 H 29 XO 0.000000
31 H 1.275800 2.224800 -0.840600 H 30 XO 0.000000
32 H -3.719900 -0.058400 -1.174500 H 31 XO 0.000000
33 H -2.114900 -0.777400 -1.448100 H 32 XO 0.000000
34 H -3.932200 -2.506500 -1.363700 H 33 XO 0.000000
35 H -2.698700 -2.749800 -0.081800 H 34 XO 0.000000
36 H -4.948900 -1.405600 2.425900 H 35 XO 0.000000
37 H -3.302500 -2.077200 2.182500 H 36 XO 0.000000
38 H -3.159400 0.376200 2.458400 H 37 XO 0.000000
39 H -4.361600 0.637300 1.174900 H 38 XO 0.000000
40 H -2.442300 4.162400 2.198000 H 39 XO 0.000000

@<TRIPOS>BOND
1 1 2 1
2 2 3 ar
3 2 7 ar
4 3 4 ar
5 4 5 ar
6 5 6 ar
7 5 8 1
8 6 7 ar
9 8 9 1
10 9 10 ar
11 9 14 ar
12 10 11 ar
13 11 12 ar
14 12 13 ar
15 12 21 1
16 13 14 ar
17 14 15 1
18 15 16 1
19 15 20 1
20 16 17 1
21 17 18 1
22 18 19 1
23 19 20 1
24 1 22 1
25 1 23 1
26 1 24 1
27 3 25 1
28 4 26 1
29 6 27 1
30 7 28 1
31 8 29 1
32 8 30 1
33 10 31 1
34 16 32 1
35 16 33 1
36 17 34 1
37 17 35 1
38 19 36 1
39 19 37 1
40 20 38 1
41 20 39 1
42 21 40 1

@<COSMOlogic>TOTAL_CHARGE
-1.0
