# Created by COSMOvis on Mon Aug 09 22:24:21 CEST 2021
#
#

#
#

@<TRIPOS>MOLECULE
SAMPL8-14_micro018_c0
41 42
SMALL
USER_CHARGES

@<TRIPOS>ATOM
1 C -1.017200 -4.089300 0.936800 C 0 XO 0.000000
2 C -0.610000 -2.649200 0.728600 C 1 XO 0.000000
3 C 0.737600 -2.286600 0.608400 C 2 XO 0.000000
4 C 1.125300 -0.956400 0.411600 C 3 XO 0.000000
5 C 0.118400 0.014800 0.330100 C 4 XO 0.000000
6 C -1.251000 -0.279500 0.446900 C 5 XO 0.000000
7 C -1.592500 -1.639400 0.650300 C 6 XO 0.000000
8 O -2.929700 -1.979600 0.768500 O 7 XO 0.000000
9 C -2.321800 0.829400 0.356300 C 8 XO 0.000000
10 C -3.130700 0.897400 1.675400 C 9 XO 0.000000
11 C -3.274900 0.555500 -0.834000 C 10 XO 0.000000
12 C -1.694300 2.219700 0.131200 C 11 XO 0.000000
13 C 2.605000 -0.574200 0.359400 C 12 XO 0.000000
14 C 2.969000 0.623600 -0.477800 C 13 XO 0.000000
15 C 3.397700 1.805100 0.101800 C 14 XO 0.000000
16 N 3.768800 2.926100 -0.552600 N 15 XO 0.000000
17 C 3.704100 2.854400 -1.946600 C 16 XO 0.000000
18 N 3.316400 1.724200 -2.620700 N 17 XO 0.000000
19 C 2.935400 0.596900 -1.935100 C 18 XO 0.000000
20 N 2.567500 -0.474900 -2.652200 N 19 XO -1.000000
21 N 4.042100 3.936100 -2.672500 N 20 XO -1.000000
22 H -1.661400 -4.462000 0.121800 H 21 XO 0.000000
23 H -1.567300 -4.234200 1.882700 H 22 XO 0.000000
24 H -0.132800 -4.737700 0.974000 H 23 XO 0.000000
25 H 1.499300 -3.070600 0.668900 H 24 XO 0.000000
26 H 0.435000 1.043300 0.157200 H 25 XO 0.000000
27 H -2.997800 -2.943100 0.908800 H 26 XO 0.000000
28 H -3.644400 -0.048300 1.886500 H 27 XO 0.000000
29 H -2.468100 1.130200 2.523000 H 28 XO 0.000000
30 H -3.887800 1.695000 1.608100 H 29 XO 0.000000
31 H -4.031700 1.353600 -0.897600 H 30 XO 0.000000
32 H -3.793500 -0.404500 -0.725700 H 31 XO 0.000000
33 H -2.715200 0.544600 -1.781900 H 32 XO 0.000000
34 H -1.026400 2.509600 0.956100 H 33 XO 0.000000
35 H -2.498400 2.968800 0.073900 H 34 XO 0.000000
36 H -1.125300 2.269000 -0.808900 H 35 XO 0.000000
37 H 2.942400 -0.380000 1.394900 H 36 XO 0.000000
38 H 3.168500 -1.469300 0.031900 H 37 XO 0.000000
39 H 3.454800 1.859800 1.200900 H 38 XO 0.000000
40 H 2.281600 -1.212600 -1.997000 H 39 XO 0.000000
41 H 4.303400 4.662300 -1.991500 H 40 XO 0.000000

@<TRIPOS>BOND
1 1 2 1
2 2 3 ar
3 2 7 ar
4 3 4 ar
5 4 5 ar
6 4 13 1
7 5 6 ar
8 6 7 ar
9 6 9 1
10 7 8 1
11 9 10 1
12 9 11 1
13 9 12 1
14 13 14 1
15 14 15 ar
16 14 19 ar
17 15 16 ar
18 16 17 ar
19 17 18 ar
20 17 21 1
21 18 19 ar
22 19 20 1
23 1 22 1
24 1 23 1
25 1 24 1
26 3 25 1
27 5 26 1
28 8 27 1
29 10 28 1
30 10 29 1
31 10 30 1
32 11 31 1
33 11 32 1
34 11 33 1
35 12 34 1
36 12 35 1
37 12 36 1
38 13 37 1
39 13 38 1
40 15 39 1
41 20 40 1
42 21 41 1

@<COSMOlogic>TOTAL_CHARGE
-2.0
