# Created by COSMOvis on Mon Aug 09 22:24:23 CEST 2021
#
#

#
#

@<TRIPOS>MOLECULE
SAMPL8-9_micro002_c0
38 40
SMALL
USER_CHARGES

@<TRIPOS>ATOM
1 C 4.507200 0.443900 -0.212800 C 0 XO 0.000000
2 C 4.482700 1.831400 -0.026900 C 1 XO 0.000000
3 C 2.108000 1.781000 0.626900 C 2 XO 0.000000
4 C 3.327800 -0.253200 0.026000 C 3 XO 0.000000
5 C 2.149100 0.401900 0.435100 C 4 XO 0.000000
6 C 3.302900 2.466400 0.386900 C 5 XO 0.000000
7 C 1.713000 -1.794100 0.273400 C 6 XO 0.000000
8 C -3.662600 0.820100 -1.173400 C 7 XO 0.000000
9 C -3.874300 -0.039300 0.080700 C 8 XO 0.000000
10 C -2.408600 0.378300 -1.940600 C 9 XO 0.000000
11 C -2.633200 -0.022900 0.985000 C 10 XO 0.000000
12 C -1.163900 0.378700 -1.038100 C 11 XO 0.000000
13 C -1.363400 -0.467200 0.230000 C 12 XO 0.000000
14 C -0.167100 -0.386100 1.192700 C 13 XO 0.000000
15 N 3.013000 -1.609000 -0.060300 N 14 XO 0.000000
16 N 1.158500 -0.582700 0.583900 N 15 XO 0.000000
17 N 1.067900 -2.958100 0.346600 N 16 XO 1.000000
18 O -1.472900 -1.886600 -0.108700 O 17 XO 0.000000
19 Br 3.321900 4.376700 0.635000 Br 18 XO 0.000000
20 H 5.418100 -0.061800 -0.531500 H 19 XO 0.000000
21 H 5.385600 2.414100 -0.203100 H 20 XO 0.000000
22 H 1.206300 2.301200 0.945200 H 21 XO 0.000000
23 H -4.546400 0.766200 -1.827300 H 22 XO 0.000000
24 H -3.550200 1.877600 -0.875400 H 23 XO 0.000000
25 H -4.744700 0.316800 0.652400 H 24 XO 0.000000
26 H -4.104000 -1.077800 -0.215400 H 25 XO 0.000000
27 H -2.227100 1.035300 -2.804200 H 26 XO 0.000000
28 H -2.571400 -0.629800 -2.366100 H 27 XO 0.000000
29 H -2.474200 1.000900 1.364000 H 28 XO 0.000000
30 H -2.776000 -0.676400 1.859800 H 29 XO 0.000000
31 H -0.284400 0.016000 -1.592200 H 30 XO 0.000000
32 H -0.947400 1.414800 -0.727700 H 31 XO 0.000000
33 H -0.289400 -1.137300 1.987400 H 32 XO 0.000000
34 H -0.148100 0.598200 1.674100 H 33 XO 0.000000
35 H 1.544400 -3.800000 0.033600 H 34 XO 0.000000
36 H -1.973300 -1.977900 -0.940800 H 35 XO 0.000000
37 H 3.631400 -2.349500 -0.383500 H 36 XO 0.000000
38 H 0.044800 -2.910000 0.216400 H 37 XO 0.000000

@<TRIPOS>BOND
1 1 2 ar
2 1 4 ar
3 2 6 ar
4 3 5 ar
5 3 6 ar
6 4 5 ar
7 4 15 1
8 5 16 1
9 6 19 1
10 7 15 1
11 7 16 1
12 7 17 2
13 8 9 1
14 8 10 1
15 9 11 1
16 10 12 1
17 11 13 1
18 12 13 1
19 13 14 1
20 13 18 1
21 14 16 1
22 1 20 1
23 2 21 1
24 3 22 1
25 8 23 1
26 8 24 1
27 9 25 1
28 9 26 1
29 10 27 1
30 10 28 1
31 11 29 1
32 11 30 1
33 12 31 1
34 12 32 1
35 14 33 1
36 14 34 1
37 15 37 1
38 17 35 1
39 17 38 1
40 18 36 1

@<COSMOlogic>TOTAL_CHARGE
1.0
