# Created by COSMOvis on Mon Aug 09 22:24:23 CEST 2021
#
#

#
#

@<TRIPOS>MOLECULE
SAMPL8-7_micro001_c0
34 36
SMALL
USER_CHARGES

@<TRIPOS>ATOM
1 C 2.249800 -3.284600 -3.355600 C 0 XO 0.000000
2 C 1.124200 -3.995400 -2.899100 C 1 XO 0.000000
3 C 0.101600 -1.924000 -2.038600 C 2 XO 0.000000
4 C 2.312900 -1.897900 -3.160300 C 3 XO 0.000000
5 C 1.225400 -1.240400 -2.498300 C 4 XO 0.000000
6 C 0.086700 -3.311700 -2.259600 C 5 XO 0.000000
7 C 2.841700 0.223700 -3.088600 C 6 XO 0.000000
8 C 1.738600 1.068400 0.345700 C 7 XO 0.000000
9 C 0.174900 2.925800 -0.258700 C 8 XO 0.000000
10 C 2.096800 1.867400 1.597100 C 9 XO 0.000000
11 C 0.618400 3.633000 1.020900 C 10 XO 0.000000
12 C 1.292200 2.008500 -0.797200 C 11 XO 0.000000
13 C 0.745600 1.209700 -2.006400 C 12 XO 0.000000
14 N 3.291100 -0.991100 -3.511700 N 13 XO 0.000000
15 N 1.578800 0.098800 -2.458200 N 14 XO 0.000000
16 N 3.409400 1.418300 -3.175600 N 15 XO -1.000000
17 O 0.997500 2.689300 2.043700 O 16 XO 0.000000
18 O 2.381000 2.855500 -1.202100 O 17 XO 0.000000
19 Br -1.453200 -4.318200 -1.637400 Br 18 XO 0.000000
20 H 3.062400 -3.813100 -3.858500 H 19 XO 0.000000
21 H 1.064600 -5.073800 -3.046400 H 20 XO 0.000000
22 H -0.724400 -1.422600 -1.534000 H 21 XO 0.000000
23 H 2.611900 0.480300 0.023900 H 22 XO 0.000000
24 H 0.929700 0.358400 0.583900 H 23 XO 0.000000
25 H -0.726000 2.328400 -0.043600 H 24 XO 0.000000
26 H -0.088300 3.673400 -1.023900 H 25 XO 0.000000
27 H 2.336300 1.202300 2.437700 H 26 XO 0.000000
28 H 2.973300 2.510200 1.393300 H 27 XO 0.000000
29 H 1.468900 4.306500 0.808600 H 28 XO 0.000000
30 H -0.201200 4.227500 1.447100 H 29 XO 0.000000
31 H 0.601600 1.914000 -2.843200 H 30 XO 0.000000
32 H -0.238300 0.793300 -1.750900 H 31 XO 0.000000
33 H 4.324600 1.335200 -3.626900 H 32 XO 0.000000
34 H 2.875400 2.368900 -1.967300 H 33 XO 0.000000

@<TRIPOS>BOND
1 1 2 ar
2 1 4 ar
3 2 6 ar
4 3 5 ar
5 3 6 ar
6 4 5 ar
7 4 14 ar
8 5 15 ar
9 6 19 1
10 7 14 ar
11 7 15 ar
12 7 16 1
13 8 10 1
14 8 12 1
15 9 11 1
16 9 12 1
17 10 17 1
18 11 17 1
19 12 13 1
20 12 18 1
21 13 15 1
22 1 20 1
23 2 21 1
24 3 22 1
25 8 23 1
26 8 24 1
27 9 25 1
28 9 26 1
29 10 27 1
30 10 28 1
31 11 29 1
32 11 30 1
33 13 31 1
34 13 32 1
35 16 33 1
36 18 34 1

@<COSMOlogic>TOTAL_CHARGE
-1.0
