# Created by COSMOvis on Mon Aug 09 22:24:23 CEST 2021
#
#

#
#

@<TRIPOS>MOLECULE
SAMPL8-3_extra003_c0
33 34
SMALL
USER_CHARGES

@<TRIPOS>ATOM
1 C 6.348600 -1.047600 2.182100 C 0 XO 0.000000
2 C 4.941100 -0.828000 2.362700 C 1 XO 0.000000
3 C 4.472400 -0.293700 1.192700 C 2 XO 0.000000
4 O 5.509500 -0.168000 0.289100 O 3 XO 0.000000
5 C 6.644200 -0.629800 0.916100 C 4 XO 0.000000
6 C 3.118600 0.126200 0.721700 C 5 XO 0.000000
7 N 3.027900 1.547900 0.349000 N 6 XO 0.000000
8 C 2.957100 2.585600 1.202300 C 7 XO 0.000000
9 C 2.911800 2.346300 2.606000 C 8 XO 0.000000
10 C 2.822200 3.374000 3.517500 C 9 XO 0.000000
11 C 2.782500 4.730200 3.091500 C 10 XO 0.000000
12 C 2.827200 4.997300 1.743000 C 11 XO 0.000000
13 C 2.910800 3.970000 0.769500 C 12 XO 0.000000
14 C 2.945000 4.378700 -0.595900 C 13 XO 0.000000
15 O 3.032400 3.468900 -1.537200 O 14 XO 0.000000
16 O 2.889000 5.655400 -0.876000 O 15 XO 0.000000
17 S 2.727500 6.151300 4.221600 S 16 XO 0.000000
18 O 3.826300 6.002200 5.218700 O 17 XO 0.000000
19 O 2.664800 7.366100 3.356000 O 18 XO 0.000000
20 N 1.253100 5.953600 5.026800 N 19 XO 0.000000
21 Cl 2.748500 2.951700 5.213100 Cl 20 XO 1.000000
22 H 7.047200 -1.460300 2.903800 H 21 XO 0.000000
23 H 4.353600 -1.045500 3.250100 H 22 XO 0.000000
24 H 7.554400 -0.587400 0.327900 H 23 XO 0.000000
25 H 2.830400 -0.434800 -0.177400 H 24 XO 0.000000
26 H 2.378500 -0.113200 1.496900 H 25 XO 0.000000
27 H 3.052300 1.750600 -0.646900 H 26 XO 0.000000
28 H 2.940800 1.325500 2.976300 H 27 XO 0.000000
29 H 2.793500 6.035100 1.414700 H 28 XO 0.000000
30 H 3.042000 3.821500 -2.454200 H 29 XO 0.000000
31 H 2.927800 5.855400 -1.836200 H 30 XO 0.000000
32 H 1.403000 5.982800 6.039600 H 31 XO 0.000000
33 H 0.590400 6.677100 4.732300 H 32 XO 0.000000

@<TRIPOS>BOND
1 1 2 ar
2 1 5 ar
3 2 3 ar
4 3 4 ar
5 3 6 1
6 4 5 ar
7 6 7 1
8 7 8 1
9 8 9 2
10 8 13 1
11 9 10 1
12 10 11 1
13 10 21 2
14 11 12 2
15 11 17 1
16 12 13 1
17 13 14 2
18 14 15 1
19 14 16 1
20 17 18 2
21 17 19 2
22 17 20 1
23 1 22 1
24 2 23 1
25 5 24 1
26 6 25 1
27 6 26 1
28 7 27 1
29 9 28 1
30 12 29 1
31 15 30 1
32 16 31 1
33 20 32 1
34 20 33 1

@<COSMOlogic>TOTAL_CHARGE
1.0
