# Created by COSMOvis on Mon Aug 09 22:24:23 CEST 2021
#
#

#
#

@<TRIPOS>MOLECULE
SAMPL8-7_micro003_c0
36 38
SMALL
USER_CHARGES

@<TRIPOS>ATOM
1 C 1.990600 -3.335600 -3.220600 C 0 XO 0.000000
2 C 0.667700 -3.773500 -3.197600 C 1 XO 0.000000
3 C -0.173500 -1.498500 -2.736500 C 2 XO 0.000000
4 C 2.239100 -1.974200 -3.002400 C 3 XO 0.000000
5 C 1.160800 -1.081600 -2.762600 C 4 XO 0.000000
6 C -0.377500 -2.858300 -2.960000 C 5 XO 0.000000
7 C 3.091800 -0.046900 -2.740500 C 6 XO 0.000000
8 C 1.052200 0.974100 0.186100 C 7 XO 0.000000
9 C 0.317900 3.210400 -0.698300 C 8 XO 0.000000
10 C 1.069500 1.615700 1.574400 C 9 XO 0.000000
11 C 0.378400 3.719800 0.744600 C 10 XO 0.000000
12 C 1.263300 2.019000 -0.917000 C 11 XO 0.000000
13 C 1.043700 1.442800 -2.332900 C 12 XO 0.000000
14 N 3.447900 -1.282400 -2.977000 N 13 XO 0.000000
15 N 1.743600 0.174100 -2.591200 N 14 XO 0.000000
16 N 4.030300 1.047200 -2.617200 N 15 XO 1.000000
17 O 0.096100 2.671100 1.685500 O 16 XO 0.000000
18 O 2.662400 2.470500 -0.807900 O 17 XO 0.000000
19 Br -2.186200 -3.525400 -2.944100 Br 18 XO 0.000000
20 H 2.807300 -4.033800 -3.406200 H 19 XO 0.000000
21 H 0.439000 -4.825100 -3.365600 H 20 XO 0.000000
22 H -1.004200 -0.816900 -2.558900 H 21 XO 0.000000
23 H 1.831400 0.198200 0.132600 H 22 XO 0.000000
24 H 0.081200 0.480600 0.024300 H 23 XO 0.000000
25 H -0.710500 2.888900 -0.922800 H 24 XO 0.000000
26 H 0.563700 4.025900 -1.398600 H 25 XO 0.000000
27 H 0.809100 0.875800 2.341500 H 26 XO 0.000000
28 H 2.074900 2.016700 1.798100 H 27 XO 0.000000
29 H 1.369700 4.158900 0.967000 H 28 XO 0.000000
30 H -0.381800 4.494700 0.904500 H 29 XO 0.000000
31 H 1.351900 2.181200 -3.086600 H 30 XO 0.000000
32 H -0.024000 1.249600 -2.490900 H 31 XO 0.000000
33 H 4.172700 1.547800 -3.507900 H 32 XO 0.000000
34 H 4.949400 0.688400 -2.321400 H 33 XO 0.000000
35 H 2.700700 3.425300 -1.011400 H 34 XO 0.000000
36 H 3.666800 1.736500 -1.873300 H 35 XO 0.000000

@<TRIPOS>BOND
1 1 2 ar
2 1 4 ar
3 2 6 ar
4 3 5 ar
5 3 6 ar
6 4 5 ar
7 4 14 ar
8 5 15 ar
9 6 19 1
10 7 14 ar
11 7 15 ar
12 7 16 1
13 8 10 1
14 8 12 1
15 9 11 1
16 9 12 1
17 10 17 1
18 11 17 1
19 12 13 1
20 12 18 1
21 13 15 1
22 1 20 1
23 2 21 1
24 3 22 1
25 8 23 1
26 8 24 1
27 9 25 1
28 9 26 1
29 10 27 1
30 10 28 1
31 11 29 1
32 11 30 1
33 13 31 1
34 13 32 1
35 16 33 1
36 16 34 1
37 16 36 1
38 18 35 1

@<COSMOlogic>TOTAL_CHARGE
1.0
