# Created by COSMOvis on Mon Aug 09 22:24:23 CEST 2021
#
#

#
#

@<TRIPOS>MOLECULE
SAMPL8-6_micro007_c0
30 31
SMALL
USER_CHARGES

@<TRIPOS>ATOM
1 C -1.477300 -0.255700 -1.621400 C 0 XO 0.000000
2 C -1.211400 -1.247300 -0.675500 C 1 XO 0.000000
3 C 0.837600 5.157700 -1.131400 C 2 XO 0.000000
4 C -0.363700 5.042000 -0.384100 C 3 XO 0.000000
5 C -1.860500 0.287800 1.090500 C 4 XO 0.000000
6 C -1.932600 1.022500 -1.258700 C 5 XO 0.000000
7 C -2.106900 1.251900 0.113800 C 6 XO 0.000000
8 C -1.408700 -0.963300 0.676000 C 7 XO 0.000000
9 C 1.704700 4.098400 -0.948300 C 8 XO 0.000000
10 C -0.425200 3.885800 0.372700 C 9 XO 0.000000
11 C 3.071400 3.854900 -1.548100 C 10 XO 0.000000
12 C -2.219000 2.071400 -2.302500 C 11 XO 0.000000
13 C -1.528900 3.469400 1.274300 C 12 XO 0.000000
14 N -2.583500 2.572700 0.576700 N 13 XO 1.000000
15 O 3.657000 2.784000 -1.198000 O 14 XO -1.000000
16 O 3.503700 4.741600 -2.342100 O 15 XO 0.000000
17 S 1.032100 2.927500 0.169100 S 16 XO 0.000000
18 Cl -1.094400 -2.207700 1.889000 Cl 17 XO 0.000000
19 H -1.328800 -0.480700 -2.678500 H 18 XO 0.000000
20 H -0.860200 -2.229600 -0.990100 H 19 XO 0.000000
21 H 1.077300 5.995200 -1.785100 H 20 XO 0.000000
22 H -1.161300 5.786200 -0.390400 H 21 XO 0.000000
23 H -2.025000 0.501100 2.146800 H 22 XO 0.000000
24 H -2.076200 1.655500 -3.306700 H 23 XO 0.000000
25 H -1.549900 2.939800 -2.203300 H 24 XO 0.000000
26 H -3.256300 2.438500 -2.245800 H 25 XO 0.000000
27 H -2.096500 4.338000 1.627900 H 26 XO 0.000000
28 H -1.186800 2.892900 2.140800 H 27 XO 0.000000
29 H -3.366200 2.446700 1.236000 H 28 XO 0.000000
30 H -2.980100 3.094500 -0.218900 H 29 XO 0.000000

@<TRIPOS>BOND
1 1 2 ar
2 1 6 ar
3 2 8 ar
4 3 4 ar
5 3 9 ar
6 4 10 ar
7 5 7 ar
8 5 8 ar
9 6 7 ar
10 6 12 1
11 7 14 1
12 8 18 1
13 9 11 1
14 9 17 ar
15 10 13 1
16 10 17 ar
17 11 15 1
18 11 16 2
19 13 14 1
20 1 19 1
21 2 20 1
22 3 21 1
23 4 22 1
24 5 23 1
25 12 24 1
26 12 25 1
27 12 26 1
28 13 27 1
29 13 28 1
30 14 29 1
31 14 30 1

@<COSMOlogic>TOTAL_CHARGE
0.0
