# Created by COSMOvis on Mon Aug 09 22:24:22 CEST 2021
#
#

#
#

@<TRIPOS>MOLECULE
SAMPL8-21_micro013_c0
38 39
SMALL
USER_CHARGES

@<TRIPOS>ATOM
1 C 2.841800 -0.765400 -0.688800 C 0 XO 0.000000
2 O 1.631500 -1.263700 -0.111200 O 1 XO 0.000000
3 C 0.766900 -0.331100 0.457600 C 2 XO 0.000000
4 C 1.020400 1.046200 0.471700 C 3 XO 0.000000
5 C 0.108800 1.939800 1.056400 C 4 XO 0.000000
6 C -1.065600 1.415900 1.623800 C 5 XO 0.000000
7 C -1.323700 0.038200 1.603500 C 6 XO 0.000000
8 C -0.417900 -0.920200 1.027100 C 7 XO 0.000000
9 O -0.654000 -2.197700 1.008300 O 8 XO -1.000000
10 O -2.478700 -0.534000 2.131900 O 9 XO 0.000000
11 C -3.448900 0.353500 2.695000 C 10 XO 0.000000
12 C 0.407900 3.436200 1.140900 C 11 XO 0.000000
13 C 1.076900 4.043500 -0.067400 C 12 XO 0.000000
14 C 0.330600 4.214100 -1.279100 C 13 XO 0.000000
15 N -0.924300 3.889400 -1.525600 N 14 XO 0.000000
16 N 1.034200 4.818500 -2.330100 N 15 XO 0.000000
17 C 2.371800 5.224200 -2.291800 C 16 XO 0.000000
18 N 3.057600 5.032700 -1.125100 N 17 XO 0.000000
19 C 2.408600 4.473000 -0.095300 C 18 XO 0.000000
20 O 3.125700 4.303000 1.068500 O 19 XO 0.000000
21 C 4.496700 4.747400 1.079200 C 20 XO 0.000000
22 N 2.968600 5.775200 -3.331500 N 21 XO -1.000000
23 H 3.470400 -0.253800 0.059700 H 22 XO 0.000000
24 H 2.641300 -0.070300 -1.521500 H 23 XO 0.000000
25 H 3.376600 -1.642900 -1.071700 H 24 XO 0.000000
26 H 1.924000 1.451800 0.014300 H 25 XO 0.000000
27 H -1.784400 2.103800 2.074600 H 26 XO 0.000000
28 H -3.824300 1.074000 1.948400 H 27 XO 0.000000
29 H -3.042600 0.910500 3.556400 H 28 XO 0.000000
30 H -4.276900 -0.280700 3.033900 H 29 XO 0.000000
31 H 1.042000 3.637000 2.019600 H 30 XO 0.000000
32 H -0.547200 3.959500 1.337600 H 31 XO 0.000000
33 H -1.305800 3.421000 -0.695900 H 32 XO 0.000000
34 H 0.513700 4.939500 -3.198100 H 33 XO 0.000000
35 H 5.097200 4.210600 0.332000 H 34 XO 0.000000
36 H 4.860100 4.519300 2.088100 H 35 XO 0.000000
37 H 4.569700 5.826900 0.887000 H 36 XO 0.000000
38 H 2.306500 5.840700 -4.114400 H 37 XO 0.000000

@<TRIPOS>BOND
1 1 2 1
2 2 3 1
3 3 4 ar
4 3 8 ar
5 4 5 ar
6 5 6 ar
7 5 12 1
8 6 7 ar
9 7 8 ar
10 7 10 1
11 8 9 1
12 10 11 1
13 12 13 1
14 13 14 1
15 13 19 2
16 14 15 2
17 14 16 1
18 16 17 1
19 17 18 2
20 17 22 1
21 18 19 1
22 19 20 1
23 20 21 1
24 1 23 1
25 1 24 1
26 1 25 1
27 4 26 1
28 6 27 1
29 11 28 1
30 11 29 1
31 11 30 1
32 12 31 1
33 12 32 1
34 15 33 1
35 16 34 1
36 21 35 1
37 21 36 1
38 21 37 1
39 22 38 1

@<COSMOlogic>TOTAL_CHARGE
-2.0
