# Created by COSMOvis on Mon Aug 09 22:24:23 CEST 2021
#
#

#
#

@<TRIPOS>MOLECULE
SAMPL8-5_micro001_c0
30 31
SMALL
USER_CHARGES

@<TRIPOS>ATOM
1 C 6.233200 0.383300 0.593500 C 0 XO 0.000000
2 C 5.068000 1.000300 1.055900 C 1 XO 0.000000
3 C 3.839400 0.351000 0.907000 C 2 XO 0.000000
4 C 3.817800 -0.899100 0.298800 C 3 XO 0.000000
5 C 4.962700 -1.561700 -0.171500 C 4 XO 0.000000
6 C 6.177900 -0.876100 -0.011200 C 5 XO 0.000000
7 C 4.866100 -2.945400 -0.784800 C 6 XO 0.000000
8 C 6.232200 -3.568200 -1.200900 C 7 XO 0.000000
9 O 6.654500 -4.531700 -0.496600 O 8 XO 0.000000
10 O 6.799600 -3.061200 -2.212900 O 9 XO -1.000000
11 N 2.503400 -1.623800 0.164000 N 10 XO 1.000000
12 C 1.297500 -0.790000 0.096300 C 11 XO 0.000000
13 C 0.943400 -0.156700 -1.101400 C 12 XO 0.000000
14 C -0.199800 0.636400 -1.170300 C 13 XO 0.000000
15 C -0.992200 0.787700 -0.029700 C 14 XO 0.000000
16 C -0.661700 0.155600 1.170900 C 15 XO 0.000000
17 C 0.484800 -0.634400 1.226200 C 16 XO 0.000000
18 Cl 0.921900 -1.453300 2.719500 Cl 17 XO 0.000000
19 Cl 1.947300 -0.386100 -2.523500 Cl 18 XO 0.000000
20 H 7.195600 0.885500 0.702400 H 19 XO 0.000000
21 H 5.105000 1.981900 1.528500 H 20 XO 0.000000
22 H 2.921100 0.825400 1.253400 H 21 XO 0.000000
23 H 7.091400 -1.339600 -0.384000 H 22 XO 0.000000
24 H 4.372600 -3.629700 -0.076800 H 23 XO 0.000000
25 H 4.240700 -2.903200 -1.696200 H 24 XO 0.000000
26 H 2.390200 -2.281800 0.958900 H 25 XO 0.000000
27 H 2.547500 -2.216800 -0.684800 H 26 XO 0.000000
28 H -0.467500 1.123500 -2.106800 H 27 XO 0.000000
29 H -1.888100 1.406700 -0.079000 H 28 XO 0.000000
30 H -1.286900 0.269500 2.055200 H 29 XO 0.000000

@<TRIPOS>BOND
1 1 2 ar
2 1 6 ar
3 2 3 ar
4 3 4 ar
5 4 5 ar
6 4 11 1
7 5 6 ar
8 5 7 1
9 7 8 1
10 8 9 2
11 8 10 1
12 11 12 1
13 12 13 ar
14 12 17 ar
15 13 14 ar
16 13 19 1
17 14 15 ar
18 15 16 ar
19 16 17 ar
20 17 18 1
21 1 20 1
22 2 21 1
23 3 22 1
24 6 23 1
25 7 24 1
26 7 25 1
27 11 26 1
28 11 27 1
29 14 28 1
30 15 29 1
31 16 30 1

@<COSMOlogic>TOTAL_CHARGE
0.0
