# Created by COSMOvis on Mon Aug 09 22:24:21 CEST 2021
#
#

#
#

@<TRIPOS>MOLECULE
SAMPL8-18_micro004_c0
37 39
SMALL
USER_CHARGES

@<TRIPOS>ATOM
1 C 4.018700 1.487700 3.532600 C 0 XO 0.000000
2 C 4.071600 1.869400 4.886100 C 1 XO 0.000000
3 C 4.726600 0.379800 3.086900 C 2 XO 0.000000
4 C 4.831800 1.144600 5.794400 C 3 XO 0.000000
5 C 6.690300 -3.212200 0.348400 C 4 XO 0.000000
6 C 7.270100 -4.256700 -0.375100 C 5 XO 0.000000
7 C 7.766200 -4.016200 2.379300 C 6 XO 0.000000
8 C 5.508700 -0.378000 3.983100 C 7 XO 0.000000
9 C 5.545800 0.026300 5.341600 C 8 XO 0.000000
10 C 6.934200 -3.086900 1.722500 C 9 XO 0.000000
11 C 8.098300 -5.188300 0.257500 C 10 XO 0.000000
12 C 8.344800 -5.057900 1.655600 C 11 XO 0.000000
13 C 6.288500 -1.556800 3.627500 C 12 XO 0.000000
14 C 6.997300 -1.793100 5.791500 C 13 XO 0.000000
15 C 8.481600 -6.407300 -1.772700 C 14 XO 0.000000
16 C 9.439500 -5.921400 3.610000 C 15 XO 0.000000
17 N 6.316600 -0.721300 6.228500 N 16 XO 1.000000
18 N 7.011900 -2.226000 4.563600 N 17 XO 0.000000
19 N 6.297700 -1.995700 2.361300 N 18 XO 0.000000
20 O 8.708300 -6.238700 -0.357500 O 19 XO 0.000000
21 O 9.163000 -6.004900 2.197800 O 20 XO 0.000000
22 Cl 7.921600 -2.644300 6.998200 Cl 21 XO 0.000000
23 H 3.418500 2.063600 2.828300 H 22 XO 0.000000
24 H 3.512200 2.740600 5.227900 H 23 XO 0.000000
25 H 4.663400 0.111000 2.032000 H 24 XO 0.000000
26 H 4.881200 1.429700 6.845900 H 25 XO 0.000000
27 H 6.046700 -2.495300 -0.164100 H 26 XO 0.000000
28 H 7.066900 -4.336400 -1.441500 H 27 XO 0.000000
29 H 7.948600 -3.910500 3.442900 H 28 XO 0.000000
30 H 9.054900 -7.295900 -2.054400 H 29 XO 0.000000
31 H 8.846300 -5.535400 -2.336000 H 30 XO 0.000000
32 H 7.414200 -6.571000 -1.983300 H 31 XO 0.000000
33 H 10.102600 -6.764500 3.826900 H 32 XO 0.000000
34 H 8.514500 -6.016200 4.198500 H 33 XO 0.000000
35 H 9.948400 -4.977300 3.856700 H 34 XO 0.000000
36 H 5.735300 -1.442200 1.714400 H 35 XO 0.000000
37 H 6.359400 -0.449100 7.212100 H 36 XO 0.000000

@<TRIPOS>BOND
1 1 2 ar
2 1 3 ar
3 2 4 ar
4 3 8 ar
5 4 9 ar
6 5 6 ar
7 5 10 ar
8 6 11 ar
9 7 10 ar
10 7 12 ar
11 8 9 ar
12 8 13 1
13 9 17 1
14 10 19 1
15 11 12 ar
16 11 20 1
17 12 21 1
18 13 18 2
19 13 19 1
20 14 17 2
21 14 18 1
22 14 22 1
23 15 20 1
24 16 21 1
25 1 23 1
26 2 24 1
27 3 25 1
28 4 26 1
29 5 27 1
30 6 28 1
31 7 29 1
32 15 30 1
33 15 31 1
34 15 32 1
35 16 33 1
36 16 34 1
37 16 35 1
38 17 37 1
39 19 36 1

@<COSMOlogic>TOTAL_CHARGE
1.0
