# Created by COSMOvis on Mon Aug 09 22:24:20 CEST 2021
#
#

#
#

@<TRIPOS>MOLECULE
SAMPL8-14_extra006_c0
43 44
SMALL
USER_CHARGES

@<TRIPOS>ATOM
1 C -1.821600 -3.114300 1.608100 C 0 XO 0.000000
2 C -3.418200 -1.317500 1.703900 C 1 XO 0.000000
3 C -4.335100 -5.899700 0.141500 C 2 XO 0.000000
4 C -3.163900 -2.696500 1.579200 C 3 XO 0.000000
5 C -0.774800 -2.207000 1.760700 C 4 XO 0.000000
6 C -2.410600 -0.352600 1.854400 C 5 XO 0.000000
7 C -4.249300 -4.513800 0.140800 C 6 XO 0.000000
8 C -1.022500 -0.782800 1.884200 C 7 XO 0.000000
9 C -4.143600 -3.906900 -1.135900 C 8 XO 0.000000
10 C -4.269600 -6.096100 -2.133400 C 9 XO 0.000000
11 C 0.658400 -2.670100 1.796400 C 10 XO 0.000000
12 C -4.271000 1.416800 1.937700 C 11 XO 0.000000
13 C -2.098000 1.929600 0.825900 C 12 XO 0.000000
14 C -2.223200 1.681200 3.336900 C 13 XO 0.000000
15 C -4.305100 -3.688100 1.408000 C 14 XO 0.000000
16 C -2.755500 1.143100 1.986100 C 15 XO 0.000000
17 N -4.347100 -6.700500 -0.948600 N 16 XO 0.000000
18 N -4.159200 -4.727000 -2.235200 N 17 XO 0.000000
19 N -4.055700 -2.586200 -1.327300 N 18 XO 0.000000
20 N -4.290200 -6.809800 -3.268400 N 19 XO 1.000000
21 O -0.023900 0.033800 2.015100 O 20 XO -1.000000
22 H -1.588300 -4.181400 1.511800 H 21 XO 0.000000
23 H -4.463700 -0.996300 1.696200 H 22 XO 0.000000
24 H -4.408100 -6.420800 1.100300 H 23 XO 0.000000
25 H 1.250700 -2.207600 0.989100 H 24 XO 0.000000
26 H 1.154100 -2.372100 2.735600 H 25 XO 0.000000
27 H 0.728200 -3.763300 1.697400 H 26 XO 0.000000
28 H -4.808200 0.915900 2.757900 H 27 XO 0.000000
29 H -4.446800 2.499200 2.037000 H 28 XO 0.000000
30 H -4.719200 1.093200 0.985500 H 29 XO 0.000000
31 H -2.511100 1.606000 -0.142600 H 30 XO 0.000000
32 H -2.291400 3.009900 0.934200 H 31 XO 0.000000
33 H -1.013900 1.756600 0.824800 H 32 XO 0.000000
34 H -2.726000 1.178700 4.178500 H 33 XO 0.000000
35 H -1.142700 1.501500 3.410600 H 34 XO 0.000000
36 H -2.416300 2.763500 3.423600 H 35 XO 0.000000
37 H -4.349100 -4.394700 2.253900 H 36 XO 0.000000
38 H -5.259300 -3.133100 1.429300 H 37 XO 0.000000
39 H -3.820400 -2.007700 -0.514500 H 38 XO 0.000000
40 H -3.903200 -2.192200 -2.252500 H 39 XO 0.000000
41 H -4.376900 -7.819000 -3.206000 H 40 XO 0.000000
42 H -4.244700 -6.382500 -4.187500 H 41 XO 0.000000
43 H -4.083100 -4.303600 -3.162000 H 42 XO 0.000000

@<TRIPOS>BOND
1 1 4 ar
2 1 5 ar
3 2 4 ar
4 2 6 ar
5 3 7 1
6 3 17 2
7 4 15 1
8 5 8 ar
9 5 11 1
10 6 8 ar
11 6 16 1
12 7 9 2
13 7 15 1
14 8 21 1
15 9 18 1
16 9 19 1
17 10 17 1
18 10 18 1
19 10 20 2
20 12 16 1
21 13 16 1
22 14 16 1
23 1 22 1
24 2 23 1
25 3 24 1
26 11 25 1
27 11 26 1
28 11 27 1
29 12 28 1
30 12 29 1
31 12 30 1
32 13 31 1
33 13 32 1
34 13 33 1
35 14 34 1
36 14 35 1
37 14 36 1
38 15 37 1
39 15 38 1
40 18 43 1
41 19 39 1
42 19 40 1
43 20 41 1
44 20 42 1

@<COSMOlogic>TOTAL_CHARGE
0.0
