# Created by COSMOvis on Mon Aug 09 22:24:21 CEST 2021
#
#

#
#

@<TRIPOS>MOLECULE
SAMPL8-19_micro003_c0
48 51
SMALL
USER_CHARGES

@<TRIPOS>ATOM
1 C 2.292200 -5.015600 1.773100 C 0 XO 0.000000
2 N 2.387500 -3.554000 1.761600 N 1 XO 0.000000
3 C 2.382600 -2.762700 2.914700 C 2 XO 0.000000
4 C 2.299300 -3.103800 4.267600 C 3 XO 0.000000
5 C 2.316600 -2.045400 5.175100 C 4 XO 0.000000
6 C 2.414700 -0.700900 4.750700 C 5 XO 0.000000
7 C 2.500800 -0.359700 3.402000 C 6 XO 0.000000
8 C 2.482100 -1.419500 2.491500 C 7 XO 0.000000
9 N 2.553400 -1.463600 1.108300 N 8 XO 1.000000
10 C 2.487200 -2.740600 0.687300 C 9 XO 0.000000
11 C 2.533200 -3.125000 -0.742700 C 10 XO 0.000000
12 S 0.935300 -2.845800 -1.648600 S 11 XO 0.000000
13 C 1.076600 -1.129900 -2.044500 C 12 XO 0.000000
14 N 0.185100 -0.677000 -2.985600 N 13 XO 1.000000
15 C 0.167300 0.621200 -3.387900 C 14 XO 0.000000
16 C 1.118400 1.512600 -2.848600 C 15 XO 0.000000
17 C 1.979300 0.970800 -1.905000 C 16 XO 0.000000
18 N 1.958000 -0.321100 -1.491800 N 17 XO 0.000000
19 C 1.163300 2.960000 -3.271900 C 18 XO 0.000000
20 C 1.651800 3.160400 -4.693400 C 19 XO 0.000000
21 C 0.853200 3.743700 -5.678300 C 20 XO 0.000000
22 N 1.274200 3.949700 -6.938800 N 21 XO 0.000000
23 C 2.526100 3.557400 -7.206100 C 22 XO 0.000000
24 N 3.397700 2.989700 -6.349600 N 23 XO 0.000000
25 C 2.944500 2.799800 -5.105300 C 24 XO 0.000000
26 O 3.025000 3.725000 -8.446900 O 25 XO 0.000000
27 C 2.158000 4.328800 -9.441600 C 26 XO 0.000000
28 O -0.711500 1.044300 -4.266700 O 27 XO 0.000000
29 H 1.313700 -5.312000 2.168700 H 28 XO 0.000000
30 H 3.092900 -5.420900 2.402200 H 29 XO 0.000000
31 H 2.405700 -5.404300 0.758300 H 30 XO 0.000000
32 H 2.222000 -4.138400 4.599600 H 31 XO 0.000000
33 H 2.251600 -2.261300 6.241900 H 32 XO 0.000000
34 H 2.423700 0.091500 5.499700 H 33 XO 0.000000
35 H 2.578100 0.676000 3.073200 H 34 XO 0.000000
36 H 2.566100 -0.693200 0.424700 H 35 XO 0.000000
37 H 3.317700 -2.571300 -1.270900 H 36 XO 0.000000
38 H 2.721200 -4.195600 -0.871700 H 37 XO 0.000000
39 H -0.479600 -1.336400 -3.405000 H 38 XO 0.000000
40 H 2.728900 1.604700 -1.427600 H 39 XO 0.000000
41 H 0.159000 3.398100 -3.172500 H 40 XO 0.000000
42 H 1.815100 3.499100 -2.569600 H 41 XO 0.000000
43 H -0.167800 4.065700 -5.452500 H 42 XO 0.000000
44 H 3.650200 2.341500 -4.405600 H 43 XO 0.000000
45 H 1.860600 5.339000 -9.132800 H 44 XO 0.000000
46 H 1.264300 3.711900 -9.600300 H 45 XO 0.000000
47 H 2.763200 4.368200 -10.352300 H 46 XO 0.000000
48 H -1.332800 0.350300 -4.574800 H 47 XO 0.000000

@<TRIPOS>BOND
1 1 2 1
2 2 3 1
3 2 10 1
4 3 4 ar
5 3 8 ar
6 4 5 ar
7 5 6 ar
8 6 7 ar
9 7 8 ar
10 8 9 1
11 9 10 2
12 10 11 1
13 11 12 1
14 12 13 1
15 13 14 2
16 13 18 1
17 14 15 1
18 15 16 2
19 15 28 1
20 16 17 1
21 16 19 1
22 17 18 2
23 19 20 1
24 20 21 ar
25 20 25 ar
26 21 22 ar
27 22 23 ar
28 23 24 ar
29 23 26 1
30 24 25 ar
31 26 27 1
32 1 29 1
33 1 30 1
34 1 31 1
35 4 32 1
36 5 33 1
37 6 34 1
38 7 35 1
39 9 36 1
40 11 37 1
41 11 38 1
42 14 39 1
43 17 40 1
44 19 41 1
45 19 42 1
46 21 43 1
47 25 44 1
48 27 45 1
49 27 46 1
50 27 47 1
51 28 48 1

@<COSMOlogic>TOTAL_CHARGE
2.0
