# Created by COSMOvis on Mon Aug 09 22:24:22 CEST 2021
#
#

#
#

@<TRIPOS>MOLECULE
SAMPL8-21_extra002_c0
41 42
SMALL
USER_CHARGES

@<TRIPOS>ATOM
1 C 1.007400 -0.428700 0.677300 C 0 XO 0.000000
2 C 1.908600 1.805600 0.371000 C 1 XO 0.000000
3 C 0.825100 0.962300 0.662000 C 2 XO 0.000000
4 C -1.043900 2.579000 0.003000 C 3 XO 0.000000
5 C 2.269200 -0.989700 0.411600 C 4 XO 0.000000
6 C 3.164700 1.248800 0.109700 C 5 XO 0.000000
7 C 3.356300 -0.146800 0.126600 C 6 XO 0.000000
8 C -1.261500 2.247000 -1.341900 C 7 XO 0.000000
9 C -1.369300 3.904500 0.357900 C 8 XO 0.000000
10 C -2.044500 4.478900 -1.750900 C 9 XO 0.000000
11 C 1.454800 -3.234400 0.675500 C 10 XO 0.000000
12 C 4.226500 3.387900 -0.234700 C 11 XO 0.000000
13 C -1.506400 5.611000 2.042000 C 12 XO 0.000000
14 C -0.544900 1.547100 0.988100 C 13 XO 0.000000
15 N -1.754700 3.212500 -2.191800 N 14 XO 0.000000
16 N -1.853300 4.834400 -0.483100 N 15 XO 0.000000
17 N -1.047100 1.024200 -1.857200 N 16 XO 1.000000
18 N -2.525700 5.361500 -2.635400 N 17 XO 0.000000
19 O 4.588600 -0.691500 -0.136500 O 18 XO 0.000000
20 O 2.543900 -2.332600 0.400900 O 19 XO 0.000000
21 O 4.309300 1.950400 -0.185100 O 20 XO 0.000000
22 O -1.179300 4.252100 1.640300 O 21 XO 0.000000
23 H 0.162700 -1.076500 0.912000 H 22 XO 0.000000
24 H 1.768800 2.886000 0.350500 H 23 XO 0.000000
25 H 0.654100 -3.129200 -0.072400 H 24 XO 0.000000
26 H 1.046200 -3.069100 1.684300 H 25 XO 0.000000
27 H 1.885500 -4.239100 0.614300 H 26 XO 0.000000
28 H 3.523000 3.712900 -1.015900 H 27 XO 0.000000
29 H 5.235900 3.732600 -0.480100 H 28 XO 0.000000
30 H 3.920200 3.796200 0.740000 H 29 XO 0.000000
31 H -1.270600 5.645500 3.109600 H 30 XO 0.000000
32 H -2.570900 5.814500 1.874300 H 31 XO 0.000000
33 H -0.894600 6.332600 1.487500 H 32 XO 0.000000
34 H -1.273900 0.721600 1.052400 H 33 XO 0.000000
35 H -0.521900 2.009300 1.984400 H 34 XO 0.000000
36 H -1.113900 0.856500 -2.857300 H 35 XO 0.000000
37 H -0.497800 0.355600 -1.320600 H 36 XO 0.000000
38 H -2.691300 5.125400 -3.608400 H 37 XO 0.000000
39 H -2.744100 6.301000 -2.320000 H 38 XO 0.000000
40 H 5.199300 0.054900 -0.312500 H 39 XO 0.000000
41 H -1.905800 2.976700 -3.173200 H 40 XO 0.000000

@<TRIPOS>BOND
1 1 3 ar
2 1 5 ar
3 2 3 ar
4 2 6 ar
5 3 14 1
6 4 8 1
7 4 9 2
8 4 14 1
9 5 7 ar
10 5 20 1
11 6 7 ar
12 6 21 1
13 7 19 1
14 8 15 1
15 8 17 2
16 9 16 1
17 9 22 1
18 10 15 1
19 10 16 2
20 10 18 1
21 11 20 1
22 12 21 1
23 13 22 1
24 1 23 1
25 2 24 1
26 11 25 1
27 11 26 1
28 11 27 1
29 12 28 1
30 12 29 1
31 12 30 1
32 13 31 1
33 13 32 1
34 13 33 1
35 14 34 1
36 14 35 1
37 15 41 1
38 17 36 1
39 17 37 1
40 18 38 1
41 18 39 1
42 19 40 1

@<COSMOlogic>TOTAL_CHARGE
1.0
