# Created by COSMOvis on Mon Aug 09 22:24:23 CEST 2021
#
#

#
#

@<TRIPOS>MOLECULE
SAMPL8-7_micro004_c0
35 37
SMALL
USER_CHARGES

@<TRIPOS>ATOM
1 C 2.238500 -3.398300 -3.625900 C 0 XO 0.000000
2 C 0.971900 -4.005800 -3.580600 C 1 XO 0.000000
3 C -0.052000 -1.940000 -2.714500 C 2 XO 0.000000
4 C 2.340000 -2.074000 -3.216400 C 3 XO 0.000000
5 C 1.210200 -1.351400 -2.762100 C 4 XO 0.000000
6 C -0.132200 -3.274800 -3.134900 C 5 XO 0.000000
7 C 3.018900 0.033400 -2.661500 C 6 XO 0.000000
8 C 1.205600 0.565500 0.429000 C 7 XO 0.000000
9 C -0.153100 2.551800 -0.262100 C 8 XO 0.000000
10 C 1.263600 1.177300 1.828100 C 9 XO 0.000000
11 C -0.016100 3.065600 1.170600 C 10 XO 0.000000
12 C 1.048500 1.664300 -0.645000 C 11 XO 0.000000
13 C 0.793900 1.061700 -2.049600 C 12 XO 0.000000
14 N 3.418400 -1.201100 -3.148300 N 13 XO 0.000000
15 N 1.646100 -0.070300 -2.424000 N 14 XO 0.000000
16 N 3.701300 1.114300 -2.427500 N 15 XO 0.000000
17 O 0.099600 1.980300 2.113100 O 16 XO 0.000000
18 O 2.207100 2.520400 -0.664300 O 17 XO 0.000000
19 Br -1.860600 -4.139300 -3.090100 Br 18 XO 0.000000
20 H 3.107800 -3.955500 -3.975200 H 19 XO 0.000000
21 H 0.858400 -5.042200 -3.895400 H 20 XO 0.000000
22 H -0.932900 -1.400700 -2.370500 H 21 XO 0.000000
23 H 2.125300 -0.011600 0.246800 H 22 XO 0.000000
24 H 0.356100 -0.135600 0.371500 H 23 XO 0.000000
25 H -1.084500 1.969400 -0.345800 H 24 XO 0.000000
26 H -0.220400 3.402600 -0.958300 H 25 XO 0.000000
27 H 1.287400 0.395200 2.598900 H 26 XO 0.000000
28 H 2.171400 1.800000 1.928000 H 27 XO 0.000000
29 H 0.866600 3.725000 1.257700 H 28 XO 0.000000
30 H -0.907800 3.632700 1.469600 H 29 XO 0.000000
31 H 0.916800 1.860100 -2.799000 H 30 XO 0.000000
32 H -0.241800 0.705500 -2.110700 H 31 XO 0.000000
33 H 4.692300 1.004200 -2.655200 H 32 XO 0.000000
34 H 2.883900 2.081400 -1.274900 H 33 XO 0.000000
35 H 4.382900 -1.428300 -3.370000 H 34 XO 0.000000

@<TRIPOS>BOND
1 1 2 ar
2 1 4 ar
3 2 6 ar
4 3 5 ar
5 3 6 ar
6 4 5 ar
7 4 14 1
8 5 15 1
9 6 19 1
10 7 14 1
11 7 15 1
12 7 16 2
13 8 10 1
14 8 12 1
15 9 11 1
16 9 12 1
17 10 17 1
18 11 17 1
19 12 13 1
20 12 18 1
21 13 15 1
22 1 20 1
23 2 21 1
24 3 22 1
25 8 23 1
26 8 24 1
27 9 25 1
28 9 26 1
29 10 27 1
30 10 28 1
31 11 29 1
32 11 30 1
33 13 31 1
34 13 32 1
35 14 35 1
36 16 33 1
37 18 34 1

@<COSMOlogic>TOTAL_CHARGE
0.0
