# Created by COSMOvis on Mon Aug 09 22:24:22 CEST 2021
#
#

#
#

@<TRIPOS>MOLECULE
SAMPL8-21_micro022_c0
39 40
SMALL
USER_CHARGES

@<TRIPOS>ATOM
1 C 1.633900 1.708700 -0.824500 C 0 XO 0.000000
2 C 0.955800 -0.345200 0.237100 C 1 XO 0.000000
3 C 0.599600 0.827100 -0.442400 C 2 XO 0.000000
4 C -1.336100 2.502400 -0.352500 C 3 XO 0.000000
5 C 2.968600 1.420500 -0.538100 C 4 XO 0.000000
6 C 2.294800 -0.632800 0.537700 C 5 XO 0.000000
7 C 3.380500 0.239800 0.197600 C 6 XO 0.000000
8 C -1.352000 2.898300 1.005400 C 7 XO 0.000000
9 C -1.812100 3.481900 -1.238700 C 8 XO 0.000000
10 C -2.241800 4.938800 0.459800 C 9 XO 0.000000
11 C 3.708700 3.455000 -1.590500 C 10 XO 0.000000
12 C 3.382600 -2.753000 0.594000 C 11 XO 0.000000
13 C -2.296700 4.183500 -3.485100 C 12 XO 0.000000
14 C -0.854300 1.133900 -0.785500 C 13 XO 0.000000
15 N -1.799600 4.108900 1.419800 N 14 XO 0.000000
16 N -2.261900 4.688400 -0.868000 N 15 XO 0.000000
17 N -0.944900 2.031700 1.991100 N 16 XO 0.000000
18 N -2.766200 6.144600 0.866300 N 17 XO 0.000000
19 O 4.616100 0.013400 0.514300 O 18 XO -1.000000
20 O 4.024700 2.250800 -0.882700 O 19 XO 0.000000
21 O 2.551200 -1.793200 1.280700 O 20 XO 0.000000
22 O -1.814000 3.176300 -2.564700 O 21 XO 0.000000
23 H 1.370800 2.628100 -1.350500 H 22 XO 0.000000
24 H 0.189700 -1.065600 0.541200 H 23 XO 0.000000
25 H 3.058000 4.116800 -0.994800 H 24 XO 0.000000
26 H 3.218800 3.241800 -2.555400 H 25 XO 0.000000
27 H 4.666200 3.956600 -1.772800 H 26 XO 0.000000
28 H 3.535400 -3.588700 1.289200 H 27 XO 0.000000
29 H 4.349100 -2.300900 0.327700 H 28 XO 0.000000
30 H 2.875800 -3.123300 -0.313700 H 29 XO 0.000000
31 H -2.208400 3.723500 -4.475100 H 30 XO 0.000000
32 H -1.682300 5.091900 -3.431100 H 31 XO 0.000000
33 H -3.343800 4.438100 -3.275000 H 32 XO 0.000000
34 H -1.017000 1.041800 -1.869800 H 33 XO 0.000000
35 H -1.487400 0.360200 -0.315800 H 34 XO 0.000000
36 H -0.275100 1.311400 1.715200 H 35 XO 0.000000
37 H -0.769900 2.454300 2.900500 H 36 XO 0.000000
38 H -2.821200 6.872900 0.159400 H 37 XO 0.000000
39 H -2.501400 6.460000 1.795400 H 38 XO 0.000000

@<TRIPOS>BOND
1 1 3 ar
2 1 5 ar
3 2 3 ar
4 2 6 ar
5 3 14 1
6 4 8 ar
7 4 9 ar
8 4 14 1
9 5 7 ar
10 5 20 1
11 6 7 ar
12 6 21 1
13 7 19 1
14 8 15 ar
15 8 17 1
16 9 16 ar
17 9 22 1
18 10 15 ar
19 10 16 ar
20 10 18 1
21 11 20 1
22 12 21 1
23 13 22 1
24 1 23 1
25 2 24 1
26 11 25 1
27 11 26 1
28 11 27 1
29 12 28 1
30 12 29 1
31 12 30 1
32 13 31 1
33 13 32 1
34 13 33 1
35 14 34 1
36 14 35 1
37 17 36 1
38 17 37 1
39 18 38 1
40 18 39 1

@<COSMOlogic>TOTAL_CHARGE
-1.0
