# Created by COSMOvis on Mon Aug 09 22:24:22 CEST 2021
#
#

#
#

@<TRIPOS>MOLECULE
SAMPL8-1_micro007_c0
30 31
SMALL
USER_CHARGES

@<TRIPOS>ATOM
1 C 0.642000 -0.185700 1.358400 C 0 XO 0.000000
2 C 0.917400 1.002700 0.677700 C 1 XO 0.000000
3 C 0.086700 1.388800 -0.382000 C 2 XO 0.000000
4 C -1.011900 0.607700 -0.758100 C 3 XO 0.000000
5 C -1.276700 -0.587300 -0.072300 C 4 XO 0.000000
6 C -0.448500 -0.978100 0.994100 C 5 XO 0.000000
7 N -2.426600 -1.346500 -0.394200 N 6 XO 0.000000
8 C -2.420100 -2.305100 -1.277700 C 7 XO 0.000000
9 C -1.185400 -2.701400 -2.055900 C 8 XO 0.000000
10 C -1.342600 -3.817100 -3.030000 C 9 XO 0.000000
11 C -2.526600 -4.447300 -3.209300 C 10 XO 0.000000
12 C -3.680800 -4.046500 -2.449500 C 11 XO 0.000000
13 C -3.664600 -3.033400 -1.525100 C 12 XO 0.000000
14 C -4.937100 -2.705500 -0.793300 C 13 XO 0.000000
15 O -5.991600 -3.310200 -0.992500 O 14 XO 0.000000
16 O -4.869600 -1.710300 0.098500 O 15 XO 0.000000
17 C 0.332600 2.699500 -1.081000 C 16 XO 0.000000
18 F 1.654500 3.037600 -1.110100 F 17 XO 0.000000
19 F -0.314300 3.740900 -0.459100 F 18 XO 0.000000
20 F -0.103900 2.698700 -2.374000 F 19 XO 0.000000
21 H 1.282000 -0.496100 2.185400 H 20 XO 0.000000
22 H 1.768600 1.618300 0.967800 H 21 XO 0.000000
23 H -1.665500 0.916100 -1.574400 H 22 XO 0.000000
24 H -0.668300 -1.899700 1.535200 H 23 XO 0.000000
25 H -0.376800 -2.952700 -1.344500 H 24 XO 0.000000
26 H -0.791000 -1.812900 -2.583500 H 25 XO 0.000000
27 H -0.456700 -4.108400 -3.597400 H 26 XO 0.000000
28 H -2.626400 -5.262900 -3.925700 H 27 XO 0.000000
29 H -4.624800 -4.571000 -2.610400 H 28 XO 0.000000
30 H -3.874300 -1.354400 0.089700 H 29 XO 0.000000

@<TRIPOS>BOND
1 1 2 ar
2 1 6 ar
3 2 3 ar
4 3 4 ar
5 3 17 1
6 4 5 ar
7 5 6 ar
8 5 7 1
9 7 8 2
10 8 9 1
11 8 13 1
12 9 10 1
13 10 11 2
14 11 12 1
15 12 13 2
16 13 14 1
17 14 15 2
18 14 16 1
19 17 18 1
20 17 19 1
21 17 20 1
22 1 21 1
23 2 22 1
24 4 23 1
25 6 24 1
26 9 25 1
27 9 26 1
28 10 27 1
29 11 28 1
30 12 29 1
31 16 30 1

@<COSMOlogic>TOTAL_CHARGE
0.0
