# Created by COSMOvis on Mon Aug 09 22:24:23 CEST 2021
#
#

#
#

@<TRIPOS>MOLECULE
SAMPL8-6_micro000_c0
30 31
SMALL
USER_CHARGES

@<TRIPOS>ATOM
1 C -3.103900 -1.443200 -1.441100 C 0 XO 0.000000
2 C -3.186000 -2.164100 -0.239800 C 1 XO 0.000000
3 C 2.999000 0.608300 2.296200 C 2 XO 0.000000
4 C 1.754900 1.281600 2.243500 C 3 XO 0.000000
5 C -1.619000 -0.573600 0.751600 C 4 XO 0.000000
6 C -2.306800 -0.305800 -1.586200 C 5 XO 0.000000
7 C -1.549200 0.140800 -0.463600 C 6 XO 0.000000
8 C -2.431400 -1.703200 0.834000 C 7 XO 0.000000
9 C 3.370500 0.058500 1.081600 C 8 XO 0.000000
10 C 1.174300 1.255600 0.989500 C 9 XO 0.000000
11 C 4.584800 -0.710000 0.819000 C 10 XO 0.000000
12 C -2.238500 0.437200 -2.895200 C 11 XO 0.000000
13 C -0.102800 1.917200 0.536200 C 12 XO 0.000000
14 N -0.733000 1.254500 -0.595400 N 13 XO 0.000000
15 O 5.453800 -0.946900 1.655500 O 14 XO 0.000000
16 O 4.664700 -1.146700 -0.468800 O 15 XO 0.000000
17 S 2.159100 0.379500 -0.156300 S 16 XO 0.000000
18 Cl -2.497700 -2.583300 2.382000 Cl 17 XO 0.000000
19 H -3.686900 -1.786000 -2.299100 H 18 XO 0.000000
20 H -3.814100 -3.049700 -0.154600 H 19 XO 0.000000
21 H 3.609600 0.514200 3.193600 H 20 XO 0.000000
22 H 1.292400 1.772500 3.099400 H 21 XO 0.000000
23 H -1.041900 -0.257200 1.618600 H 22 XO 0.000000
24 H -1.210100 0.469200 -3.292300 H 23 XO 0.000000
25 H -2.577700 1.482400 -2.794200 H 24 XO 0.000000
26 H -2.874900 -0.044100 -3.648500 H 25 XO 0.000000
27 H 0.118200 2.948000 0.222600 H 26 XO 0.000000
28 H -0.785600 1.992300 1.401700 H 27 XO 0.000000
29 H -0.923500 1.851700 -1.393500 H 28 XO 0.000000
30 H 5.501600 -1.649500 -0.565000 H 29 XO 0.000000

@<TRIPOS>BOND
1 1 2 ar
2 1 6 ar
3 2 8 ar
4 3 4 ar
5 3 9 ar
6 4 10 ar
7 5 7 ar
8 5 8 ar
9 6 7 ar
10 6 12 1
11 7 14 1
12 8 18 1
13 9 11 1
14 9 17 ar
15 10 13 1
16 10 17 ar
17 11 15 2
18 11 16 1
19 13 14 1
20 1 19 1
21 2 20 1
22 3 21 1
23 4 22 1
24 5 23 1
25 12 24 1
26 12 25 1
27 12 26 1
28 13 27 1
29 13 28 1
30 14 29 1
31 16 30 1

@<COSMOlogic>TOTAL_CHARGE
0.0
