# Created by COSMOvis on Mon Aug 09 22:24:21 CEST 2021
#
#

#
#

@<TRIPOS>MOLECULE
SAMPL8-16_extra005_c0
33 34
SMALL
USER_CHARGES

@<TRIPOS>ATOM
1 C 4.728600 1.861600 1.754900 C 0 XO 0.000000
2 C 4.507400 0.611000 1.130700 C 1 XO 0.000000
3 C 3.984400 2.256300 2.872700 C 2 XO 0.000000
4 C 3.536400 -0.276700 1.609000 C 3 XO 0.000000
5 C 3.005500 1.375200 3.367800 C 4 XO 0.000000
6 C 2.780800 0.103400 2.733000 C 5 XO 0.000000
7 C 1.440700 0.322500 4.400800 C 6 XO 0.000000
8 C 0.098200 -0.819700 7.585000 C 7 XO 0.000000
9 C -1.038900 -2.820500 9.656300 C 8 XO 0.000000
10 C 1.112400 -2.307800 10.848300 C 9 XO 0.000000
11 C -0.602400 -0.492000 10.579900 C 10 XO 0.000000
12 C 0.384800 0.000200 5.423000 C 11 XO 0.000000
13 C 0.017400 -1.740700 9.935300 C 12 XO 0.000000
14 N 2.132500 1.494500 4.431400 N 13 XO -1.000000
15 N 1.770600 -0.551700 3.410700 N 14 XO 0.000000
16 N 0.977400 -0.595200 6.626300 N 15 XO 0.000000
17 O -1.146600 -0.602800 7.617000 O 16 XO -1.000000
18 O 0.753200 -1.394800 8.715300 O 17 XO 0.000000
19 H 5.495700 2.529200 1.354900 H 18 XO 0.000000
20 H 5.107400 0.335900 0.259800 H 19 XO 0.000000
21 H 4.161500 3.224800 3.349200 H 20 XO 0.000000
22 H 3.371000 -1.241100 1.120000 H 21 XO 0.000000
23 H -0.569700 -3.695700 9.181900 H 22 XO 0.000000
24 H -1.499200 -3.150000 10.600400 H 23 XO 0.000000
25 H -1.819400 -2.431700 8.992100 H 24 XO 0.000000
26 H 0.683600 -2.611300 11.814500 H 25 XO 0.000000
27 H 1.889800 -1.552800 11.035900 H 26 XO 0.000000
28 H 1.583900 -3.187700 10.386600 H 27 XO 0.000000
29 H -1.048200 -0.752600 11.552000 H 28 XO 0.000000
30 H 0.173100 0.269300 10.753400 H 29 XO 0.000000
31 H -1.377900 -0.068600 9.931200 H 30 XO 0.000000
32 H -0.169000 0.931000 5.662700 H 31 XO 0.000000
33 H -0.354500 -0.680900 4.953800 H 32 XO 0.000000

@<TRIPOS>BOND
1 1 2 ar
2 1 3 ar
3 2 4 ar
4 3 5 ar
5 4 6 ar
6 5 6 ar
7 5 14 ar
8 6 15 ar
9 7 12 1
10 7 14 ar
11 7 15 ar
12 8 16 2
13 8 17 1
14 8 18 1
15 9 13 1
16 10 13 1
17 11 13 1
18 12 16 1
19 13 18 1
20 1 19 1
21 2 20 1
22 3 21 1
23 4 22 1
24 9 23 1
25 9 24 1
26 9 25 1
27 10 26 1
28 10 27 1
29 10 28 1
30 11 29 1
31 11 30 1
32 11 31 1
33 12 32 1
34 12 33 1

@<COSMOlogic>TOTAL_CHARGE
-2.0
