# Created by COSMOvis on Mon Aug 09 22:24:21 CEST 2021
#
#

#
#

@<TRIPOS>MOLECULE
SAMPL8-14_micro022_c0
42 43
SMALL
USER_CHARGES

@<TRIPOS>ATOM
1 C -0.816500 -0.856400 3.999600 C 0 XO 0.000000
2 C -0.867300 -0.725600 2.498800 C 1 XO 0.000000
3 C -0.049100 -1.505000 1.677500 C 2 XO 0.000000
4 C -0.084700 -1.401400 0.277100 C 3 XO 0.000000
5 C -0.983900 -0.472500 -0.276300 C 4 XO 0.000000
6 C -1.832100 0.340200 0.489500 C 5 XO 0.000000
7 C -1.791500 0.235900 1.939300 C 6 XO 0.000000
8 O -2.536900 0.951500 2.730000 O 7 XO -1.000000
9 C -2.793400 1.341100 -0.180200 C 8 XO 0.000000
10 C -4.252700 1.007900 0.216000 C 9 XO 0.000000
11 C -2.710100 1.319500 -1.718500 C 10 XO 0.000000
12 C -2.450700 2.777100 0.287700 C 11 XO 0.000000
13 C 0.844900 -2.213100 -0.599000 C 12 XO 0.000000
14 C 2.161400 -1.548200 -0.945600 C 13 XO 0.000000
15 C 2.475600 -0.295800 -0.529300 C 14 XO 0.000000
16 N 3.685200 0.286300 -0.862000 N 15 XO 0.000000
17 C 4.590500 -0.409600 -1.622900 C 16 XO 0.000000
18 N 4.355300 -1.623300 -2.073500 N 17 XO 0.000000
19 C 3.149500 -2.263900 -1.766000 C 18 XO 0.000000
20 N 2.893100 -3.473100 -2.198500 N 19 XO 0.000000
21 N 5.798000 0.192600 -1.855300 N 20 XO 0.000000
22 H -0.084400 -1.616600 4.309900 H 21 XO 0.000000
23 H -1.800900 -1.130200 4.416100 H 22 XO 0.000000
24 H -0.548800 0.100400 4.479600 H 23 XO 0.000000
25 H 0.640700 -2.220100 2.143200 H 24 XO 0.000000
26 H -1.009400 -0.387400 -1.365800 H 25 XO 0.000000
27 H -4.539900 0.015800 -0.167100 H 26 XO 0.000000
28 H -4.349300 1.008000 1.309800 H 27 XO 0.000000
29 H -4.948300 1.750600 -0.209400 H 28 XO 0.000000
30 H -3.420400 2.053500 -2.130600 H 29 XO 0.000000
31 H -1.705500 1.587000 -2.080800 H 30 XO 0.000000
32 H -2.972100 0.333200 -2.132500 H 31 XO 0.000000
33 H -2.495800 2.831100 1.383500 H 32 XO 0.000000
34 H -3.161400 3.503900 -0.140300 H 33 XO 0.000000
35 H -1.437600 3.057100 -0.041700 H 34 XO 0.000000
36 H 1.076000 -3.181200 -0.120700 H 35 XO 0.000000
37 H 0.346800 -2.482400 -1.547900 H 36 XO 0.000000
38 H 1.806100 0.312400 0.076000 H 37 XO 0.000000
39 H 3.906200 1.217900 -0.518700 H 38 XO 0.000000
40 H 3.706700 -3.787700 -2.748000 H 39 XO 0.000000
41 H 5.852400 1.207000 -1.806600 H 40 XO 0.000000
42 H 6.354600 -0.226100 -2.596000 H 41 XO 0.000000

@<TRIPOS>BOND
1 1 2 1
2 2 3 ar
3 2 7 ar
4 3 4 ar
5 4 5 ar
6 4 13 1
7 5 6 ar
8 6 7 ar
9 6 9 1
10 7 8 1
11 9 10 1
12 9 11 1
13 9 12 1
14 13 14 1
15 14 15 2
16 14 19 1
17 15 16 1
18 16 17 1
19 17 18 2
20 17 21 1
21 18 19 1
22 19 20 2
23 1 22 1
24 1 23 1
25 1 24 1
26 3 25 1
27 5 26 1
28 10 27 1
29 10 28 1
30 10 29 1
31 11 30 1
32 11 31 1
33 11 32 1
34 12 33 1
35 12 34 1
36 12 35 1
37 13 36 1
38 13 37 1
39 15 38 1
40 16 39 1
41 20 40 1
42 21 41 1
43 21 42 1

@<COSMOlogic>TOTAL_CHARGE
-1.0
