# Created by COSMOvis on Mon Aug 09 22:24:23 CEST 2021
#
#

#
#

@<TRIPOS>MOLECULE
SAMPL8-9_micro003_c0
37 39
SMALL
USER_CHARGES

@<TRIPOS>ATOM
1 C 1.191100 9.033900 -0.378800 C 0 XO 0.000000
2 C 0.203500 9.537500 -1.243000 C 1 XO 0.000000
3 C 0.088000 7.394700 -2.452400 C 2 XO 0.000000
4 C 1.610700 7.721800 -0.563900 C 3 XO 0.000000
5 C 1.065500 6.907500 -1.586700 C 4 XO 0.000000
6 C -0.320100 8.720300 -2.248100 C 5 XO 0.000000
7 C 2.611200 5.672800 -0.453700 C 6 XO 0.000000
8 C -1.341400 1.323400 -1.704400 C 7 XO 0.000000
9 C -0.126600 1.039100 -2.599800 C 8 XO 0.000000
10 C -0.953000 2.213300 -0.515000 C 9 XO 0.000000
11 C 0.535200 2.344800 -3.063800 C 10 XO 0.000000
12 C -0.275700 3.512200 -0.977200 C 11 XO 0.000000
13 C 0.948900 3.238500 -1.876600 C 12 XO 0.000000
14 C 1.540100 4.553100 -2.449000 C 13 XO 0.000000
15 N 2.549500 6.942700 0.099600 N 14 XO 0.000000
16 N 1.686900 5.662400 -1.501100 N 15 XO 0.000000
17 N 3.330500 4.640300 -0.129700 N 16 XO 0.000000
18 O 1.963900 2.515600 -1.145400 O 17 XO 0.000000
19 Br -1.678000 9.443600 -3.418300 Br 18 XO 0.000000
20 H 1.610700 9.660700 0.408100 H 19 XO 0.000000
21 H -0.147400 10.561600 -1.123800 H 20 XO 0.000000
22 H -0.342600 6.785500 -3.245400 H 21 XO 0.000000
23 H -2.121000 1.831600 -2.300700 H 22 XO 0.000000
24 H -1.782700 0.379300 -1.346600 H 23 XO 0.000000
25 H 0.609300 0.437200 -2.042000 H 24 XO 0.000000
26 H -0.425300 0.445400 -3.478300 H 25 XO 0.000000
27 H -1.839800 2.455100 0.092300 H 26 XO 0.000000
28 H -0.257500 1.663100 0.140000 H 27 XO 0.000000
29 H 1.424800 2.134900 -3.679900 H 28 XO 0.000000
30 H -0.174800 2.904700 -3.696200 H 29 XO 0.000000
31 H -1.001200 4.125000 -1.541600 H 30 XO 0.000000
32 H 0.037900 4.110600 -0.107500 H 31 XO 0.000000
33 H 0.896900 4.919700 -3.258500 H 32 XO 0.000000
34 H 2.528400 4.331400 -2.883000 H 33 XO 0.000000
35 H 3.946200 4.833100 0.664100 H 34 XO 0.000000
36 H 2.532100 3.202800 -0.673800 H 35 XO 0.000000
37 H 3.092800 7.225700 0.909400 H 36 XO 0.000000

@<TRIPOS>BOND
1 1 2 ar
2 1 4 ar
3 2 6 ar
4 3 5 ar
5 3 6 ar
6 4 5 ar
7 4 15 1
8 5 16 1
9 6 19 1
10 7 15 1
11 7 16 1
12 7 17 2
13 8 9 1
14 8 10 1
15 9 11 1
16 10 12 1
17 11 13 1
18 12 13 1
19 13 14 1
20 13 18 1
21 14 16 1
22 1 20 1
23 2 21 1
24 3 22 1
25 8 23 1
26 8 24 1
27 9 25 1
28 9 26 1
29 10 27 1
30 10 28 1
31 11 29 1
32 11 30 1
33 12 31 1
34 12 32 1
35 14 33 1
36 14 34 1
37 15 37 1
38 17 35 1
39 18 36 1

@<COSMOlogic>TOTAL_CHARGE
0.0
