# Created by COSMOvis on Mon Aug 09 22:24:23 CEST 2021
#
#

#
#

@<TRIPOS>MOLECULE
SAMPL8-8_micro002_c0
25 26
SMALL
USER_CHARGES

@<TRIPOS>ATOM
1 C 4.369400 -5.333400 0.043900 C 0 XO 0.000000
2 O 3.727000 -4.004600 -0.040800 O 1 XO 0.000000
3 C 2.448100 -3.918400 0.077400 C 2 XO 0.000000
4 C 1.791800 -2.643800 0.002300 C 3 XO 0.000000
5 C 2.311200 -1.370400 -0.188600 C 4 XO 0.000000
6 N 1.215600 -0.548500 -0.168900 N 5 XO 1.000000
7 C 1.136000 0.822700 -0.310400 C 6 XO 0.000000
8 C -0.093100 1.414300 -0.251400 C 7 XO 0.000000
9 C -1.269300 0.638400 -0.048200 C 8 XO 0.000000
10 C -1.199100 -0.729500 0.093800 C 9 XO 0.000000
11 C 0.071400 -1.367700 0.035300 C 10 XO 0.000000
12 N 0.421400 -2.643700 0.139500 N 11 XO 0.000000
13 C -2.429000 -1.572700 0.311300 C 12 XO 0.000000
14 F -3.560700 -0.821000 0.333400 F 13 XO 0.000000
15 F -2.379600 -2.254600 1.493700 F 14 XO 0.000000
16 F -2.589800 -2.506100 -0.671600 F 15 XO 0.000000
17 O 1.736400 -4.990800 0.267400 O 16 XO 0.000000
18 H 5.432400 -5.121700 -0.078200 H 17 XO 0.000000
19 H 3.988100 -5.962200 -0.767000 H 18 XO 0.000000
20 H 4.155200 -5.767900 1.025500 H 19 XO 0.000000
21 H 3.319600 -0.999200 -0.329200 H 20 XO 0.000000
22 H 2.074300 1.351000 -0.462200 H 21 XO 0.000000
23 H -0.166500 2.494200 -0.362000 H 22 XO 0.000000
24 H -2.234200 1.141300 -0.005400 H 23 XO 0.000000
25 H 0.781500 -4.712300 0.331900 H 24 XO 0.000000

@<TRIPOS>BOND
1 1 2 1
2 2 3 1
3 3 4 2
4 3 17 1
5 4 5 ar
6 4 12 ar
7 5 6 ar
8 6 7 ar
9 6 11 ar
10 7 8 ar
11 8 9 ar
12 9 10 ar
13 10 11 ar
14 10 13 1
15 11 12 ar
16 13 14 1
17 13 15 1
18 13 16 1
19 1 18 1
20 1 19 1
21 1 20 1
22 5 21 1
23 7 22 1
24 8 23 1
25 9 24 1
26 17 25 1

@<COSMOlogic>TOTAL_CHARGE
1.0
