# Created by COSMOvis on Mon Aug 09 22:24:22 CEST 2021
#
#

#
#

@<TRIPOS>MOLECULE
SAMPL8-19_micro020_c0
46 49
SMALL
USER_CHARGES

@<TRIPOS>ATOM
1 C -1.284000 -2.132900 -0.648100 C 0 XO 0.000000
2 N 0.024500 -2.753900 -0.768300 N 1 XO 0.000000
3 C 1.261000 -2.105400 -0.740600 C 2 XO 0.000000
4 C 1.606300 -0.760600 -0.618100 C 3 XO 0.000000
5 C 2.976000 -0.438600 -0.624000 C 4 XO 0.000000
6 C 3.958500 -1.430800 -0.750000 C 5 XO 0.000000
7 C 3.611100 -2.788200 -0.875100 C 6 XO 0.000000
8 C 2.255600 -3.105900 -0.868300 C 7 XO 0.000000
9 N 1.583700 -4.316800 -0.975100 N 8 XO 0.000000
10 C 0.214400 -4.125800 -0.895400 C 9 XO 0.000000
11 C -0.774200 -5.083600 -0.920000 C 10 XO 0.000000
12 S -0.383400 -6.791000 -1.018100 S 11 XO 0.000000
13 C -0.371800 -7.215500 -2.782700 C 12 XO 0.000000
14 N -0.130200 -8.514500 -3.016000 N 13 XO 0.000000
15 C -0.123100 -8.876500 -4.315500 C 14 XO 0.000000
16 C -0.343200 -7.996600 -5.373400 C 15 XO 0.000000
17 C -0.591000 -6.663900 -4.975200 C 16 XO 0.000000
18 N -0.605200 -6.269800 -3.698600 N 17 XO 0.000000
19 O -0.832800 -5.736000 -5.924000 O 18 XO 0.000000
20 C -0.340500 -8.435000 -6.818700 C 19 XO 0.000000
21 C 0.846300 -7.930900 -7.615300 C 20 XO 0.000000
22 C 0.701700 -7.105800 -8.731400 C 21 XO 0.000000
23 N 1.741800 -6.664200 -9.463700 N 22 XO 0.000000
24 C 2.950800 -7.067300 -9.057300 C 23 XO 0.000000
25 N 3.229000 -7.858700 -8.003800 N 24 XO 0.000000
26 C 2.169600 -8.276200 -7.299300 C 25 XO 0.000000
27 O 4.048800 -6.672400 -9.737500 O 26 XO 0.000000
28 C 3.847000 -5.817900 -10.891700 C 27 XO 0.000000
29 H -1.808100 -2.503900 0.245100 H 28 XO 0.000000
30 H -1.895100 -2.342200 -1.537800 H 29 XO 0.000000
31 H -1.156700 -1.049800 -0.556900 H 30 XO 0.000000
32 H 0.850400 0.019000 -0.518500 H 31 XO 0.000000
33 H 3.273700 0.606500 -0.527900 H 32 XO 0.000000
34 H 5.012700 -1.150100 -0.750400 H 33 XO 0.000000
35 H 4.372700 -3.562700 -0.972900 H 34 XO 0.000000
36 H 2.007300 -5.237300 -1.045400 H 35 XO 0.000000
37 H -1.820900 -4.792600 -0.893800 H 36 XO 0.000000
38 H 0.063400 -9.935200 -4.520100 H 37 XO 0.000000
39 H -0.986600 -4.880300 -5.468300 H 38 XO 0.000000
40 H -1.263600 -8.092400 -7.311000 H 39 XO 0.000000
41 H -0.358400 -9.535600 -6.846100 H 40 XO 0.000000
42 H -0.290000 -6.781500 -9.060700 H 41 XO 0.000000
43 H 2.390400 -8.919900 -6.442300 H 42 XO 0.000000
44 H 3.364700 -4.877000 -10.597400 H 43 XO 0.000000
45 H 3.234400 -6.326200 -11.647500 H 44 XO 0.000000
46 H 4.852900 -5.627900 -11.278600 H 45 XO 0.000000

@<TRIPOS>BOND
1 1 2 1
2 2 3 1
3 2 10 1
4 3 4 ar
5 3 8 ar
6 4 5 ar
7 5 6 ar
8 6 7 ar
9 7 8 ar
10 8 9 1
11 9 10 1
12 10 11 2
13 11 12 1
14 12 13 1
15 13 14 ar
16 13 18 ar
17 14 15 ar
18 15 16 ar
19 16 17 ar
20 16 20 1
21 17 18 ar
22 17 19 1
23 20 21 1
24 21 22 ar
25 21 26 ar
26 22 23 ar
27 23 24 ar
28 24 25 ar
29 24 27 1
30 25 26 ar
31 27 28 1
32 1 29 1
33 1 30 1
34 1 31 1
35 4 32 1
36 5 33 1
37 6 34 1
38 7 35 1
39 9 36 1
40 11 37 1
41 15 38 1
42 19 39 1
43 20 40 1
44 20 41 1
45 22 42 1
46 26 43 1
47 28 44 1
48 28 45 1
49 28 46 1

@<COSMOlogic>TOTAL_CHARGE
0.0
