# Created by COSMOvis on Mon Aug 09 22:24:21 CEST 2021
#
#

#
#

@<TRIPOS>MOLECULE
SAMPL8-14_micro010_c0
42 43
SMALL
USER_CHARGES

@<TRIPOS>ATOM
1 C -0.033100 1.037000 3.304200 C 0 XO 0.000000
2 C -0.304600 0.731300 1.849700 C 1 XO 0.000000
3 C 0.705300 0.836900 0.887100 C 2 XO 0.000000
4 C 0.461600 0.554200 -0.460800 C 3 XO 0.000000
5 C -0.832700 0.159500 -0.826500 C 4 XO 0.000000
6 C -1.892000 0.031800 0.089300 C 5 XO 0.000000
7 C -1.595000 0.329000 1.440800 C 6 XO 0.000000
8 O -2.601800 0.214600 2.382800 O 7 XO 0.000000
9 C -3.298300 -0.413700 -0.365000 C 8 XO 0.000000
10 C -4.336200 0.691000 -0.044900 C 9 XO 0.000000
11 C -3.693700 -1.732100 0.346200 C 10 XO 0.000000
12 C -3.359900 -0.675100 -1.883700 C 11 XO 0.000000
13 C 1.554100 0.716900 -1.513800 C 12 XO 0.000000
14 C 2.903100 0.149900 -1.144900 C 13 XO 0.000000
15 C 3.993700 0.966300 -0.939800 C 14 XO 0.000000
16 N 5.249100 0.540400 -0.621100 N 15 XO 0.000000
17 C 5.354600 -0.806600 -0.524600 C 16 XO 0.000000
18 N 4.398400 -1.720900 -0.713100 N 17 XO 0.000000
19 C 3.116300 -1.290100 -1.027500 C 18 XO 0.000000
20 N 2.186600 -2.218400 -1.208600 N 19 XO -1.000000
21 N 6.606100 -1.286300 -0.131800 N 20 XO 0.000000
22 H -0.664400 1.859800 3.681400 H 21 XO 0.000000
23 H 1.012300 1.339000 3.445100 H 22 XO 0.000000
24 H -0.211200 0.162400 3.952900 H 23 XO 0.000000
25 H 1.706900 1.140900 1.203400 H 24 XO 0.000000
26 H -1.016700 -0.061700 -1.878700 H 25 XO 0.000000
27 H -2.242900 0.453700 3.258500 H 26 XO 0.000000
28 H -5.336100 0.369700 -0.376900 H 27 XO 0.000000
29 H -4.086400 1.622000 -0.576800 H 28 XO 0.000000
30 H -4.381500 0.907100 1.029200 H 29 XO 0.000000
31 H -3.713500 -1.615400 1.436400 H 30 XO 0.000000
32 H -4.694400 -2.048700 0.013000 H 31 XO 0.000000
33 H -2.983000 -2.534200 0.094700 H 32 XO 0.000000
34 H -3.124100 0.226400 -2.468700 H 33 XO 0.000000
35 H -2.674800 -1.478300 -2.193200 H 34 XO 0.000000
36 H -4.380900 -0.986900 -2.150000 H 35 XO 0.000000
37 H 1.192900 0.260900 -2.453400 H 36 XO 0.000000
38 H 1.683100 1.791900 -1.731500 H 37 XO 0.000000
39 H 3.877500 2.053200 -1.037800 H 38 XO 0.000000
40 H 1.291400 -1.752400 -1.398000 H 39 XO 0.000000
41 H 7.379300 -0.660800 -0.349500 H 40 XO 0.000000
42 H 6.784500 -2.253600 -0.394100 H 41 XO 0.000000

@<TRIPOS>BOND
1 1 2 1
2 2 3 ar
3 2 7 ar
4 3 4 ar
5 4 5 ar
6 4 13 1
7 5 6 ar
8 6 7 ar
9 6 9 1
10 7 8 1
11 9 10 1
12 9 11 1
13 9 12 1
14 13 14 1
15 14 15 ar
16 14 19 ar
17 15 16 ar
18 16 17 ar
19 17 18 ar
20 17 21 1
21 18 19 ar
22 19 20 1
23 1 22 1
24 1 23 1
25 1 24 1
26 3 25 1
27 5 26 1
28 8 27 1
29 10 28 1
30 10 29 1
31 10 30 1
32 11 31 1
33 11 32 1
34 11 33 1
35 12 34 1
36 12 35 1
37 12 36 1
38 13 37 1
39 13 38 1
40 15 39 1
41 20 40 1
42 21 41 1
43 21 42 1

@<COSMOlogic>TOTAL_CHARGE
-1.0
