# Created by COSMOvis on Mon Aug 09 22:24:22 CEST 2021
#
#

#
#

@<TRIPOS>MOLECULE
SAMPL8-21_extra009_c0
40 41
SMALL
USER_CHARGES

@<TRIPOS>ATOM
1 C 2.767100 1.527900 1.232900 C 0 XO 0.000000
2 C 1.394100 -0.415000 0.836500 C 1 XO 0.000000
3 C 1.805700 0.622500 1.701100 C 2 XO 0.000000
4 C -0.280700 0.800500 3.159300 C 3 XO 0.000000
5 C 3.320000 1.399800 -0.048600 C 4 XO 0.000000
6 C 1.939500 -0.543500 -0.440900 C 5 XO 0.000000
7 C 2.965400 0.345700 -0.954700 C 6 XO 0.000000
8 C -1.005300 1.825000 2.500500 C 7 XO 0.000000
9 C -1.062100 -0.123500 3.870000 C 8 XO 0.000000
10 C -2.935100 0.956800 3.283100 C 9 XO 0.000000
11 C 3.971000 3.130600 -1.551300 C 10 XO 0.000000
12 C 0.604100 -2.495200 -0.893500 C 11 XO 0.000000
13 C -1.246400 -2.081300 5.245000 C 12 XO 0.000000
14 C 1.229800 0.741000 3.106100 C 13 XO 0.000000
15 N -2.370600 1.904300 2.569900 N 14 XO 0.000000
16 N -2.413000 -0.061300 3.940800 N 15 XO 0.000000
17 N -0.380200 2.803900 1.799500 N 16 XO 0.000000
18 N -4.415300 1.047400 3.361900 N 17 XO 1.000000
19 O 3.499600 0.187500 -2.122100 O 18 XO -1.000000
20 O 4.317600 2.313200 -0.412200 O 19 XO 0.000000
21 O 1.586700 -1.546900 -1.328600 O 20 XO 0.000000
22 O -0.433200 -1.122500 4.518200 O 21 XO 0.000000
23 H 3.116300 2.347500 1.868900 H 22 XO 0.000000
24 H 0.633400 -1.118200 1.180800 H 23 XO 0.000000
25 H 4.838300 3.773200 -1.750500 H 24 XO 0.000000
26 H 3.095700 3.761800 -1.321000 H 25 XO 0.000000
27 H 3.759500 2.498500 -2.426100 H 26 XO 0.000000
28 H 0.472100 -3.194200 -1.727300 H 27 XO 0.000000
29 H -0.359200 -2.007100 -0.670500 H 28 XO 0.000000
30 H 0.942800 -3.049000 -0.002000 H 29 XO 0.000000
31 H -0.527100 -2.784000 5.676100 H 30 XO 0.000000
32 H -1.931000 -2.602600 4.564100 H 31 XO 0.000000
33 H -1.817000 -1.581400 6.037700 H 32 XO 0.000000
34 H 1.564400 -0.096700 3.735000 H 33 XO 0.000000
35 H 1.633900 1.656200 3.573400 H 34 XO 0.000000
36 H -0.958500 3.410600 1.223400 H 35 XO 0.000000
37 H 0.570000 2.624400 1.469800 H 36 XO 0.000000
38 H -4.732100 1.198400 4.331100 H 37 XO 0.000000
39 H -4.863000 0.182800 3.024600 H 38 XO 0.000000
40 H -4.752600 1.832600 2.787500 H 39 XO 0.000000

@<TRIPOS>BOND
1 1 3 ar
2 1 5 ar
3 2 3 ar
4 2 6 ar
5 3 14 1
6 4 8 ar
7 4 9 ar
8 4 14 1
9 5 7 ar
10 5 20 1
11 6 7 ar
12 6 21 1
13 7 19 1
14 8 15 ar
15 8 17 1
16 9 16 ar
17 9 22 1
18 10 15 ar
19 10 16 ar
20 10 18 1
21 11 20 1
22 12 21 1
23 13 22 1
24 1 23 1
25 2 24 1
26 11 25 1
27 11 26 1
28 11 27 1
29 12 28 1
30 12 29 1
31 12 30 1
32 13 31 1
33 13 32 1
34 13 33 1
35 14 34 1
36 14 35 1
37 17 36 1
38 17 37 1
39 18 38 1
40 18 39 1
41 18 40 1

@<COSMOlogic>TOTAL_CHARGE
0.0
