# Created by COSMOvis on Mon Aug 09 22:24:23 CEST 2021
#
#

#
#

@<TRIPOS>MOLECULE
SAMPL8-4_micro010_c0
27 28
SMALL
USER_CHARGES

@<TRIPOS>ATOM
1 N -0.710000 -1.705100 4.477900 N 0 XO 0.000000
2 C -1.465000 -1.802600 5.643600 C 1 XO 0.000000
3 C -1.443200 -3.114400 6.333300 C 2 XO 0.000000
4 O -2.012200 -3.388900 7.382300 O 3 XO 0.000000
5 O -0.709500 -4.057800 5.686500 O 4 XO 0.000000
6 H -0.348200 -3.628100 4.871100 H 5 XO 0.000000
7 C 3.590800 -2.285300 -0.691800 C 6 XO 0.000000
8 C 2.040400 -0.490200 -0.051800 C 7 XO 0.000000
9 C 1.101900 0.043800 0.810800 C 8 XO 0.000000
10 C 1.294300 -1.915700 2.251000 C 9 XO 0.000000
11 C 2.632000 -1.749000 0.207900 C 10 XO 0.000000
12 C 0.714400 -0.662100 1.973200 C 11 XO 0.000000
13 C 2.236100 -2.436300 1.374100 C 12 XO 0.000000
14 C -2.178200 -0.686800 6.025500 C 13 XO 0.000000
15 C -0.823100 -0.517400 3.944100 C 14 XO 0.000000
16 C -3.079700 -0.451800 7.189700 C 15 XO 0.000000
17 N 4.376700 -2.702400 -1.449700 N 16 XO 0.000000
18 N -0.227300 -0.054800 2.797400 N 17 XO 0.000000
19 S -1.884500 0.591100 4.853100 S 18 XO 0.000000
20 Cl 2.949700 -4.002300 1.743800 Cl 19 XO 0.000000
21 H 2.332300 0.059400 -0.946400 H 20 XO 0.000000
22 H 0.656400 1.015700 0.592600 H 21 XO 0.000000
23 H 1.011000 -2.465300 3.143200 H 22 XO 0.000000
24 H -2.681600 0.338700 7.844100 H 23 XO 0.000000
25 H -4.079000 -0.133000 6.858300 H 24 XO 0.000000
26 H -3.174100 -1.374700 7.771300 H 25 XO 0.000000
27 H -0.514700 0.876200 2.500800 H 26 XO 0.000000

@<TRIPOS>BOND
1 1 2 ar
2 1 15 ar
3 2 3 1
4 2 14 ar
5 3 4 2
6 3 5 1
7 7 11 1
8 7 17 3
9 8 9 ar
10 8 11 ar
11 9 12 ar
12 10 12 ar
13 10 13 ar
14 11 13 ar
15 12 18 1
16 13 20 1
17 14 16 1
18 14 19 ar
19 15 18 1
20 15 19 ar
21 5 6 1
22 8 21 1
23 9 22 1
24 10 23 1
25 16 24 1
26 16 25 1
27 16 26 1
28 18 27 1

@<COSMOlogic>TOTAL_CHARGE
0.0
