# Created by COSMOvis on Mon Aug 09 22:24:20 CEST 2021
#
#

#
#

@<TRIPOS>MOLECULE
SAMPL8-12_extra001_c0
43 45
SMALL
USER_CHARGES

@<TRIPOS>ATOM
1 C -1.507800 0.478100 -3.969300 C 0 XO 0.000000
2 C -0.530600 -1.648300 -4.535700 C 1 XO 0.000000
3 C -1.708500 0.038700 -2.656900 C 2 XO 0.000000
4 C -0.731300 -2.092400 -3.225800 C 3 XO 0.000000
5 C 0.867000 -0.964500 -0.324600 C 4 XO 0.000000
6 C -0.916800 -0.356200 -4.933000 C 5 XO 0.000000
7 C -1.322000 -1.252500 -2.268900 C 6 XO 0.000000
8 C -0.335600 -1.575300 0.069100 C 7 XO 0.000000
9 C -0.321800 -2.030200 1.392000 C 8 XO 0.000000
10 C 1.775800 -1.343000 1.699000 C 9 XO 0.000000
11 C -1.940800 -2.091400 3.309200 C 10 XO 0.000000
12 C -1.276200 -4.205900 2.138600 C 11 XO 0.000000
13 C -3.148200 -2.856300 3.830900 C 12 XO 0.000000
14 C -2.523600 -4.836900 2.739000 C 13 XO 0.000000
15 C -0.732400 0.107500 -6.357000 C 14 XO 0.000000
16 C -1.533700 -1.729800 -0.846700 C 15 XO 0.000000
17 N 1.932200 -0.841300 0.486600 N 16 XO 0.000000
18 N 0.712000 -1.934900 2.217400 N 17 XO 0.000000
19 N -1.508900 -2.699700 1.973500 N 18 XO 1.000000
20 N 2.937200 -1.227800 2.595000 N 19 XO 1.000000
21 O -2.856800 -4.249300 4.001800 O 20 XO 0.000000
22 H -1.817700 1.487900 -4.248800 H 21 XO 0.000000
23 H -0.069100 -2.319900 -5.263500 H 22 XO 0.000000
24 H -2.172800 0.707900 -1.928500 H 23 XO 0.000000
25 H -0.427200 -3.104500 -2.947500 H 24 XO 0.000000
26 H 0.974200 -0.562000 -1.332500 H 25 XO 0.000000
27 H -2.176800 -1.036700 3.127300 H 26 XO 0.000000
28 H -1.078300 -2.177500 3.977200 H 27 XO 0.000000
29 H -0.405600 -4.305600 2.796000 H 28 XO 0.000000
30 H -1.050500 -4.617800 1.147500 H 29 XO 0.000000
31 H -3.412200 -2.453400 4.816000 H 30 XO 0.000000
32 H -4.013200 -2.727800 3.154900 H 31 XO 0.000000
33 H -3.376000 -4.750500 2.040700 H 32 XO 0.000000
34 H -2.322300 -5.900700 2.913700 H 33 XO 0.000000
35 H -1.614300 -0.144900 -6.968100 H 34 XO 0.000000
36 H -0.600300 1.197200 -6.409600 H 35 XO 0.000000
37 H 0.137600 -0.373200 -6.825200 H 36 XO 0.000000
38 H -2.384800 -1.186100 -0.403900 H 37 XO 0.000000
39 H -1.820400 -2.795000 -0.868100 H 38 XO 0.000000
40 H 3.730200 -0.800600 2.093500 H 39 XO 0.000000
41 H 3.238100 -2.150200 2.946500 H 40 XO 0.000000
42 H -2.293900 -2.577500 1.313100 H 41 XO 0.000000
43 H 2.726400 -0.639900 3.416800 H 42 XO 0.000000

@<TRIPOS>BOND
1 1 3 ar
2 1 6 ar
3 2 4 ar
4 2 6 ar
5 3 7 ar
6 4 7 ar
7 5 8 ar
8 5 17 ar
9 6 15 1
10 7 16 1
11 8 9 ar
12 8 16 1
13 9 18 ar
14 9 19 1
15 10 17 ar
16 10 18 ar
17 10 20 1
18 11 13 1
19 11 19 1
20 12 14 1
21 12 19 1
22 13 21 1
23 14 21 1
24 1 22 1
25 2 23 1
26 3 24 1
27 4 25 1
28 5 26 1
29 11 27 1
30 11 28 1
31 12 29 1
32 12 30 1
33 13 31 1
34 13 32 1
35 14 33 1
36 14 34 1
37 15 35 1
38 15 36 1
39 15 37 1
40 16 38 1
41 16 39 1
42 19 42 1
43 20 40 1
44 20 41 1
45 20 43 1

@<COSMOlogic>TOTAL_CHARGE
2.0
