# Created by COSMOvis on Mon Aug 09 22:24:23 CEST 2021
#
#

#
#

@<TRIPOS>MOLECULE
SAMPL8-22_extra004_c0
28 29
SMALL
USER_CHARGES

@<TRIPOS>ATOM
1 C 3.970600 -1.817700 0.426100 C 0 XO 0.000000
2 O 3.571200 -0.433600 0.264600 O 1 XO 0.000000
3 C 2.270700 -0.172500 0.054700 C 2 XO 0.000000
4 C 1.263000 -1.124000 -0.013500 C 3 XO 0.000000
5 C -0.074200 -0.734900 -0.238800 C 4 XO 0.000000
6 C -0.366800 0.643300 -0.394700 C 5 XO 0.000000
7 C 0.629300 1.617200 -0.330700 C 6 XO 0.000000
8 C 1.948800 1.226700 -0.107700 C 7 XO 0.000000
9 O 2.987400 2.062300 -0.027600 O 8 XO 0.000000
10 C 2.745400 3.486300 -0.183300 C 9 XO 0.000000
11 N -1.689800 1.025100 -0.616800 N 10 XO 0.000000
12 C -2.680000 0.153300 -0.687500 C 11 XO 0.000000
13 N -2.422400 -1.159300 -0.542900 N 12 XO 0.000000
14 C -1.156300 -1.667700 -0.319300 C 13 XO 0.000000
15 N -1.041200 -2.974200 -0.196800 N 14 XO 2.000000
16 Cl -4.274400 0.662000 -0.958600 Cl 15 XO 0.000000
17 H 3.732100 -2.393900 -0.479100 H 16 XO 0.000000
18 H 5.053000 -1.786500 0.575900 H 17 XO 0.000000
19 H 3.480600 -2.258900 1.305300 H 18 XO 0.000000
20 H 1.515000 -2.174600 0.109900 H 19 XO 0.000000
21 H 0.366500 2.665700 -0.456500 H 20 XO 0.000000
22 H 2.069500 3.845800 0.604400 H 21 XO 0.000000
23 H 3.728000 3.953300 -0.079200 H 22 XO 0.000000
24 H 2.330300 3.695000 -1.178600 H 23 XO 0.000000
25 H -1.907100 2.019300 -0.729500 H 24 XO 0.000000
26 H -3.214100 -1.805500 -0.604000 H 25 XO 0.000000
27 H -0.138100 -3.411000 -0.030800 H 26 XO 0.000000
28 H -1.842800 -3.599700 -0.259500 H 27 XO 0.000000

@<TRIPOS>BOND
1 1 2 1
2 2 3 1
3 3 4 ar
4 3 8 ar
5 4 5 ar
6 5 6 ar
7 5 14 1
8 6 7 ar
9 6 11 1
10 7 8 ar
11 8 9 1
12 9 10 1
13 11 12 1
14 12 13 2
15 12 16 1
16 13 14 2
17 14 15 1
18 1 17 1
19 1 18 1
20 1 19 1
21 4 20 1
22 7 21 1
23 10 22 1
24 10 23 1
25 10 24 1
26 11 25 1
27 13 26 1
28 15 27 1
29 15 28 1

@<COSMOlogic>TOTAL_CHARGE
2.0
