# Created by COSMOvis on Mon Aug 09 22:24:20 CEST 2021
#
#

#
#

@<TRIPOS>MOLECULE
SAMPL8-11_micro005_c0
44 46
SMALL
USER_CHARGES

@<TRIPOS>ATOM
1 C 4.687900 4.534100 -0.365200 C 0 XO 0.000000
2 N 3.612000 4.814200 -1.356900 N 1 XO 0.000000
3 C 2.652200 3.858400 -1.711200 C 2 XO 0.000000
4 C 2.800500 2.460000 -1.427900 C 3 XO 0.000000
5 C 1.680100 1.674800 -1.728500 C 4 XO 0.000000
6 C 0.558500 2.185800 -2.392000 C 5 XO 0.000000
7 N 0.468000 3.451600 -2.771400 N 6 XO 0.000000
8 C 1.498100 4.277800 -2.442100 C 7 XO 0.000000
9 C 1.417300 5.627000 -2.882200 C 8 XO 0.000000
10 C 2.429700 6.506800 -2.619800 C 9 XO 0.000000
11 C 3.525700 6.078700 -1.840500 C 10 XO 0.000000
12 O 4.525700 6.884000 -1.502200 O 11 XO 0.000000
13 F 1.668900 0.363000 -1.394000 F 12 XO 1.000000
14 O 3.946300 1.998100 -0.900700 O 13 XO 0.000000
15 C 4.401600 0.625300 -1.197300 C 14 XO 0.000000
16 C 5.899800 0.567700 -0.938800 C 15 XO 0.000000
17 C 6.250500 0.788900 0.543400 C 16 XO 0.000000
18 C 7.761100 0.665000 0.796900 C 17 XO 0.000000
19 C 8.266400 -0.691600 0.308100 C 18 XO 0.000000
20 C 7.948600 -0.926000 -1.168600 C 19 XO 0.000000
21 C 6.437800 -0.796100 -1.417800 C 20 XO 0.000000
22 N 9.762100 -0.785500 0.525400 N 21 XO 1.000000
23 H 4.303800 3.834000 0.375400 H 22 XO 0.000000
24 H 4.951200 5.476900 0.117900 H 23 XO 0.000000
25 H 5.564900 4.117200 -0.870100 H 24 XO 0.000000
26 H -0.273600 1.514100 -2.617700 H 25 XO 0.000000
27 H 0.536200 5.930300 -3.447600 H 26 XO 0.000000
28 H 2.406100 7.538800 -2.968000 H 27 XO 0.000000
29 H 4.361000 7.790500 -1.833900 H 28 XO 0.000000
30 H 3.860800 -0.075000 -0.547100 H 29 XO 0.000000
31 H 4.173100 0.409300 -2.250000 H 30 XO 0.000000
32 H 6.380100 1.356100 -1.544700 H 31 XO 0.000000
33 H 5.908000 1.777000 0.880000 H 32 XO 0.000000
34 H 5.713300 0.042300 1.154000 H 33 XO 0.000000
35 H 7.975800 0.789000 1.869200 H 34 XO 0.000000
36 H 8.296000 1.466000 0.258100 H 35 XO 0.000000
37 H 7.837900 -1.497800 0.920400 H 36 XO 0.000000
38 H 8.296600 -1.922400 -1.479600 H 37 XO 0.000000
39 H 8.488700 -0.181300 -1.778100 H 38 XO 0.000000
40 H 5.908600 -1.606000 -0.887000 H 39 XO 0.000000
41 H 6.236500 -0.931500 -2.490800 H 40 XO 0.000000
42 H 10.268100 -0.062900 -0.005600 H 41 XO 0.000000
43 H 10.132900 -1.698200 0.228600 H 42 XO 0.000000
44 H 10.010300 -0.665500 1.516700 H 43 XO 0.000000

@<TRIPOS>BOND
1 1 2 1
2 2 3 1
3 2 11 1
4 3 4 2
5 3 8 1
6 4 5 1
7 4 14 1
8 5 6 1
9 5 13 2
10 6 7 2
11 7 8 1
12 8 9 2
13 9 10 1
14 10 11 2
15 11 12 1
16 14 15 1
17 15 16 1
18 16 17 1
19 16 21 1
20 17 18 1
21 18 19 1
22 19 20 1
23 19 22 1
24 20 21 1
25 1 23 1
26 1 24 1
27 1 25 1
28 6 26 1
29 9 27 1
30 10 28 1
31 12 29 1
32 15 30 1
33 15 31 1
34 16 32 1
35 17 33 1
36 17 34 1
37 18 35 1
38 18 36 1
39 19 37 1
40 20 38 1
41 20 39 1
42 21 40 1
43 21 41 1
44 22 42 1
45 22 43 1
46 22 44 1

@<COSMOlogic>TOTAL_CHARGE
2.0
