# Created by COSMOvis on Mon Aug 09 22:24:21 CEST 2021
#
#

#
#

@<TRIPOS>MOLECULE
SAMPL8-14_micro002_c0
43 44
SMALL
USER_CHARGES

@<TRIPOS>ATOM
1 C -2.687200 -3.459400 0.749800 C 0 XO 0.000000
2 C -1.856800 -2.287700 0.282400 C 1 XO 0.000000
3 C -0.565800 -2.472300 -0.227500 C 2 XO 0.000000
4 C 0.209900 -1.391400 -0.658100 C 3 XO 0.000000
5 C -0.339200 -0.104700 -0.565400 C 4 XO 0.000000
6 C -1.626800 0.149200 -0.066600 C 5 XO 0.000000
7 C -2.374800 -0.977600 0.357400 C 6 XO 0.000000
8 O -3.645800 -0.776600 0.860200 O 7 XO 0.000000
9 C -2.188700 1.585000 0.012700 C 8 XO 0.000000
10 C -3.467600 1.703900 -0.853600 C 9 XO 0.000000
11 C -1.181300 2.628700 -0.510800 C 10 XO 0.000000
12 C -2.509700 1.950800 1.483300 C 11 XO 0.000000
13 C 1.592300 -1.617300 -1.261300 C 12 XO 0.000000
14 C 2.664500 -0.663300 -0.799900 C 13 XO 0.000000
15 C 3.274300 0.223200 -1.655300 C 14 XO 0.000000
16 N 4.273000 1.105600 -1.334500 N 15 XO 0.000000
17 C 4.681300 1.078600 -0.071600 C 16 XO 0.000000
18 N 4.137200 0.235400 0.856300 N 17 XO 0.000000
19 C 3.111000 -0.687800 0.582000 C 18 XO 0.000000
20 N 2.709400 -1.431300 1.573400 N 19 XO 0.000000
21 N 5.711000 1.873400 0.327000 N 20 XO 0.000000
22 H -2.135300 -4.398900 0.620400 H 21 XO 0.000000
23 H -2.951700 -3.380700 1.818200 H 22 XO 0.000000
24 H -3.629300 -3.552700 0.183200 H 23 XO 0.000000
25 H -0.163600 -3.488000 -0.286700 H 24 XO 0.000000
26 H 0.273600 0.733700 -0.896200 H 25 XO 0.000000
27 H -4.029700 -1.640200 1.104800 H 26 XO 0.000000
28 H -3.242000 1.482100 -1.908000 H 27 XO 0.000000
29 H -4.253100 1.018100 -0.514800 H 28 XO 0.000000
30 H -3.858500 2.732300 -0.800300 H 29 XO 0.000000
31 H -0.923400 2.461900 -1.567500 H 30 XO 0.000000
32 H -0.251500 2.637400 0.077100 H 31 XO 0.000000
33 H -1.633000 3.628800 -0.433600 H 32 XO 0.000000
34 H -1.599500 1.903700 2.100200 H 33 XO 0.000000
35 H -2.900300 2.979300 1.533500 H 34 XO 0.000000
36 H -3.258000 1.276000 1.916000 H 35 XO 0.000000
37 H 1.527700 -1.546300 -2.360000 H 36 XO 0.000000
38 H 1.898800 -2.655500 -1.044300 H 37 XO 0.000000
39 H 2.959500 0.253400 -2.703300 H 38 XO 0.000000
40 H 4.485500 0.241700 1.816100 H 39 XO 0.000000
41 H 1.943700 -2.035700 1.255500 H 40 XO 0.000000
42 H 5.854100 2.058500 1.315700 H 41 XO 0.000000
43 H 5.965700 2.626600 -0.305600 H 42 XO 0.000000

@<TRIPOS>BOND
1 1 2 1
2 2 3 ar
3 2 7 ar
4 3 4 ar
5 4 5 ar
6 4 13 1
7 5 6 ar
8 6 7 ar
9 6 9 1
10 7 8 1
11 9 10 1
12 9 11 1
13 9 12 1
14 13 14 1
15 14 15 2
16 14 19 1
17 15 16 1
18 16 17 2
19 17 18 1
20 17 21 1
21 18 19 1
22 19 20 2
23 1 22 1
24 1 23 1
25 1 24 1
26 3 25 1
27 5 26 1
28 8 27 1
29 10 28 1
30 10 29 1
31 10 30 1
32 11 31 1
33 11 32 1
34 11 33 1
35 12 34 1
36 12 35 1
37 12 36 1
38 13 37 1
39 13 38 1
40 15 39 1
41 18 40 1
42 20 41 1
43 21 42 1
44 21 43 1

@<COSMOlogic>TOTAL_CHARGE
0.0
