# Created by COSMOvis on Mon Aug 09 22:24:23 CEST 2021
#
#

#
#

@<TRIPOS>MOLECULE
SAMPL8-23_micro003_c0
18 19
SMALL
USER_CHARGES

@<TRIPOS>ATOM
1 C -2.897500 0.120800 -0.296500 C 0 XO 0.000000
2 C -1.935100 -0.011600 -1.285400 C 1 XO 0.000000
3 C -1.198700 0.176600 1.475000 C 2 XO 0.000000
4 C -0.245800 0.044800 0.470400 C 3 XO 0.000000
5 C -2.592500 0.220100 1.124400 C 4 XO 0.000000
6 C -0.585300 -0.044100 -0.900400 C 5 XO 0.000000
7 C 1.874100 -0.150300 -0.481900 C 6 XO 0.000000
8 C 3.356800 -0.196700 -0.503200 C 7 XO 0.000000
9 N 1.144300 -0.020800 0.629400 N 8 XO 0.000000
10 O -3.523900 0.339800 2.001800 O 9 XO 0.000000
11 S 0.869700 -0.210200 -1.881700 S 10 XO 0.000000
12 H -3.953000 0.150600 -0.577100 H 11 XO 0.000000
13 H -2.219500 -0.082100 -2.336400 H 12 XO 0.000000
14 H -0.903000 0.243100 2.523400 H 13 XO 0.000000
15 H 3.722800 -0.570100 -1.465900 H 14 XO 0.000000
16 H 3.769100 0.812200 -0.343800 H 15 XO 0.000000
17 H 3.730100 -0.848200 0.298900 H 16 XO 0.000000
18 H 1.587500 0.026300 1.549100 H 17 XO 0.000000

@<TRIPOS>BOND
1 1 2 2
2 1 5 1
3 2 6 1
4 3 4 2
5 3 5 1
6 4 6 1
7 4 9 1
8 5 10 2
9 6 11 2
10 7 8 1
11 7 9 1
12 7 11 2
13 1 12 1
14 2 13 1
15 3 14 1
16 8 15 1
17 8 16 1
18 8 17 1
19 9 18 1

@<COSMOlogic>TOTAL_CHARGE
0.0
