# Created by COSMOvis on Mon Aug 09 22:24:20 CEST 2021
#
#

#
#

@<TRIPOS>MOLECULE
SAMPL8-14_micro001_c0
41 42
SMALL
USER_CHARGES

@<TRIPOS>ATOM
1 C -0.728200 -1.297400 -3.288600 C 0 XO 0.000000
2 C -0.628100 -1.003600 -1.813500 C 1 XO 0.000000
3 C 0.607900 -0.974300 -1.166200 C 2 XO 0.000000
4 C 0.721200 -0.700800 0.207600 C 3 XO 0.000000
5 C -0.469000 -0.447400 0.911900 C 4 XO 0.000000
6 C -1.743400 -0.459500 0.322500 C 5 XO 0.000000
7 C -1.860500 -0.746300 -1.096300 C 6 XO 0.000000
8 O -2.994700 -0.775500 -1.732500 O 7 XO -1.000000
9 C -3.006800 -0.167400 1.154100 C 8 XO 0.000000
10 C -2.700400 0.111800 2.637800 C 9 XO 0.000000
11 C -3.727800 1.077000 0.581000 C 10 XO 0.000000
12 C -3.961200 -1.385000 1.093200 C 11 XO 0.000000
13 C 2.071600 -0.707600 0.918700 C 12 XO 0.000000
14 C 3.151600 0.142700 0.289100 C 13 XO 0.000000
15 C 4.358400 -0.384300 -0.168000 C 14 XO 0.000000
16 N 5.367600 0.314600 -0.707600 N 15 XO 0.000000
17 C 5.187200 1.694200 -0.815100 C 16 XO 0.000000
18 N 6.145600 2.469800 -1.315400 N 17 XO -1.000000
19 N 4.006100 2.306700 -0.416400 N 18 XO 0.000000
20 C 3.040000 1.552900 0.117200 C 19 XO 0.000000
21 N 1.900500 2.210600 0.561000 N 20 XO 0.000000
22 H -1.204600 -0.465300 -3.834400 H 21 XO 0.000000
23 H -1.362400 -2.178800 -3.483000 H 22 XO 0.000000
24 H 0.263900 -1.478400 -3.727900 H 23 XO 0.000000
25 H 1.517200 -1.167800 -1.747900 H 24 XO 0.000000
26 H -0.381400 -0.233300 1.981100 H 25 XO 0.000000
27 H -2.051000 0.991500 2.766900 H 26 XO 0.000000
28 H -3.643100 0.311900 3.171200 H 27 XO 0.000000
29 H -2.216000 -0.746500 3.128200 H 28 XO 0.000000
30 H -3.958500 0.916500 -0.480500 H 29 XO 0.000000
31 H -4.665200 1.269100 1.129800 H 30 XO 0.000000
32 H -3.089300 1.969700 0.676100 H 31 XO 0.000000
33 H -4.896100 -1.172400 1.638600 H 32 XO 0.000000
34 H -3.492000 -2.267600 1.556600 H 33 XO 0.000000
35 H -4.198900 -1.618000 0.046900 H 34 XO 0.000000
36 H 1.901100 -0.393100 1.965500 H 35 XO 0.000000
37 H 2.463300 -1.739900 0.981100 H 36 XO 0.000000
38 H 4.519900 -1.468900 -0.086100 H 37 XO 0.000000
39 H 6.928600 1.847700 -1.556700 H 38 XO 0.000000
40 H 1.047900 1.646100 0.554000 H 39 XO 0.000000
41 H 1.779100 3.146100 0.174400 H 40 XO 0.000000

@<TRIPOS>BOND
1 1 2 1
2 2 3 ar
3 2 7 ar
4 3 4 ar
5 4 5 ar
6 4 13 1
7 5 6 ar
8 6 7 ar
9 6 9 1
10 7 8 1
11 9 10 1
12 9 11 1
13 9 12 1
14 13 14 1
15 14 15 ar
16 14 20 ar
17 15 16 ar
18 16 17 ar
19 17 18 1
20 17 19 ar
21 19 20 ar
22 20 21 1
23 1 22 1
24 1 23 1
25 1 24 1
26 3 25 1
27 5 26 1
28 10 27 1
29 10 28 1
30 10 29 1
31 11 30 1
32 11 31 1
33 11 32 1
34 12 33 1
35 12 34 1
36 12 35 1
37 13 36 1
38 13 37 1
39 15 38 1
40 18 39 1
41 21 40 1
42 21 41 1

@<COSMOlogic>TOTAL_CHARGE
-2.0
