# Created by COSMOvis on Mon Aug 09 22:24:20 CEST 2021
#
#

#
#

@<TRIPOS>MOLECULE
SAMPL8-12_extra002_c0
42 44
SMALL
USER_CHARGES

@<TRIPOS>ATOM
1 C 1.466600 0.263500 -4.271100 C 0 XO 0.000000
2 C -0.358900 1.524500 -3.339900 C 1 XO 0.000000
3 C 1.280200 -0.724700 -3.297200 C 2 XO 0.000000
4 C -0.546100 0.539800 -2.367100 C 3 XO 0.000000
5 C 1.536600 -0.329100 0.269800 C 4 XO 0.000000
6 C 0.650400 1.405100 -4.312500 C 5 XO 0.000000
7 C 0.273100 -0.601500 -2.329700 C 6 XO 0.000000
8 C 0.553900 -1.296600 0.114300 C 7 XO 0.000000
9 C -0.016300 -1.809900 1.331600 C 8 XO 0.000000
10 C 1.248800 -0.303400 2.480300 C 9 XO 0.000000
11 C -1.685800 -3.044700 2.645100 C 10 XO 0.000000
12 C -0.883200 -4.028900 0.566100 C 11 XO 0.000000
13 C -3.062800 -3.617200 2.318400 C 12 XO 0.000000
14 C -2.284800 -4.572600 0.312400 C 13 XO 0.000000
15 C 0.828000 2.455300 -5.382200 C 14 XO 0.000000
16 C 0.062800 -1.671900 -1.275500 C 15 XO 0.000000
17 N 1.935600 0.183400 1.464900 N 16 XO 0.000000
18 N 0.324400 -1.237500 2.520700 N 17 XO 0.000000
19 N -0.951400 -2.806200 1.389800 N 18 XO 0.000000
20 N 1.577100 0.299000 3.797100 N 19 XO 1.000000
21 O -2.977700 -4.827000 1.545100 O 20 XO 0.000000
22 H 2.261300 0.142700 -5.011600 H 21 XO 0.000000
23 H -1.010100 2.402200 -3.347100 H 22 XO 0.000000
24 H 1.929000 -1.604200 -3.290900 H 23 XO 0.000000
25 H -1.340900 0.660100 -1.626400 H 24 XO 0.000000
26 H 2.018900 0.099600 -0.610000 H 25 XO 0.000000
27 H -1.797700 -2.098500 3.184900 H 26 XO 0.000000
28 H -1.122700 -3.744300 3.287700 H 27 XO 0.000000
29 H -0.291600 -4.781700 1.117600 H 28 XO 0.000000
30 H -0.377700 -3.841600 -0.383500 H 29 XO 0.000000
31 H -3.586200 -3.875200 3.248000 H 30 XO 0.000000
32 H -3.658300 -2.865900 1.767000 H 31 XO 0.000000
33 H -2.864400 -3.857700 -0.301700 H 32 XO 0.000000
34 H -2.222500 -5.531200 -0.218100 H 33 XO 0.000000
35 H 0.155500 2.265700 -6.234700 H 34 XO 0.000000
36 H 0.593600 3.459500 -5.001500 H 35 XO 0.000000
37 H 1.855800 2.461600 -5.770400 H 36 XO 0.000000
38 H -1.013000 -1.897500 -1.204600 H 37 XO 0.000000
39 H 0.554600 -2.597800 -1.615000 H 38 XO 0.000000
40 H 1.688700 -0.422100 4.523900 H 39 XO 0.000000
41 H 0.834400 0.941300 4.112000 H 40 XO 0.000000
42 H 2.452000 0.838300 3.731300 H 41 XO 0.000000

@<TRIPOS>BOND
1 1 3 ar
2 1 6 ar
3 2 4 ar
4 2 6 ar
5 3 7 ar
6 4 7 ar
7 5 8 ar
8 5 17 ar
9 6 15 1
10 7 16 1
11 8 9 ar
12 8 16 1
13 9 18 ar
14 9 19 1
15 10 17 ar
16 10 18 ar
17 10 20 1
18 11 13 1
19 11 19 1
20 12 14 1
21 12 19 1
22 13 21 1
23 14 21 1
24 1 22 1
25 2 23 1
26 3 24 1
27 4 25 1
28 5 26 1
29 11 27 1
30 11 28 1
31 12 29 1
32 12 30 1
33 13 31 1
34 13 32 1
35 14 33 1
36 14 34 1
37 15 35 1
38 15 36 1
39 15 37 1
40 16 38 1
41 16 39 1
42 20 40 1
43 20 41 1
44 20 42 1

@<COSMOlogic>TOTAL_CHARGE
1.0
