# Created by COSMOvis on Mon Aug 09 22:24:22 CEST 2021
#
#

#
#

@<TRIPOS>MOLECULE
SAMPL8-20_micro003_c0
27 29
SMALL
USER_CHARGES

@<TRIPOS>ATOM
1 C -4.519000 -0.002600 -0.480600 C 0 XO 0.000000
2 C -3.667000 -0.243100 -1.565300 C 1 XO 0.000000
3 C -3.981100 0.190600 0.797400 C 2 XO 0.000000
4 C -2.284600 -0.288600 -1.373300 C 3 XO 0.000000
5 C -2.600000 0.125700 0.997700 C 4 XO 0.000000
6 C 1.808000 -0.812700 1.214700 C 5 XO 0.000000
7 C 2.494400 -0.013300 0.297000 C 6 XO 0.000000
8 C -1.738200 -0.116700 -0.087700 C 7 XO 0.000000
9 C 0.426600 -0.867400 1.081300 C 8 XO 0.000000
10 C -0.261500 -0.124500 0.069400 C 9 XO 0.000000
11 C 1.743500 0.631000 -0.712900 C 10 XO 0.000000
12 C 3.868000 0.343600 0.067100 C 11 XO 0.000000
13 N 0.417700 0.608600 -0.835800 N 12 XO 0.000000
14 N 3.869400 1.174500 -0.997100 N 13 XO 0.000000
15 N 2.604100 1.280500 -1.567900 N 14 XO 0.000000
16 N 4.964500 -0.052700 0.708700 N 15 XO 1.000000
17 Cl -0.446200 -1.948900 2.168800 Cl 16 XO 0.000000
18 H -5.599200 0.039400 -0.631600 H 17 XO 0.000000
19 H -4.079800 -0.393500 -2.564200 H 18 XO 0.000000
20 H -4.639100 0.395300 1.643600 H 19 XO 0.000000
21 H -1.618000 -0.467300 -2.218200 H 20 XO 0.000000
22 H -2.192500 0.291600 1.994900 H 21 XO 0.000000
23 H 2.317400 -1.380300 1.992900 H 22 XO 0.000000
24 H 2.384400 2.175800 -2.007600 H 23 XO 0.000000
25 H 5.888800 0.282500 0.453100 H 24 XO 0.000000
26 H 4.892400 -0.657600 1.519800 H 25 XO 0.000000
27 H 4.677100 1.477100 -1.539100 H 26 XO 0.000000

@<TRIPOS>BOND
1 1 2 ar
2 1 3 ar
3 2 4 ar
4 3 5 ar
5 4 8 ar
6 5 8 ar
7 6 7 ar
8 6 9 ar
9 7 11 ar
10 7 12 1
11 8 10 1
12 9 10 ar
13 9 17 1
14 10 13 ar
15 11 13 ar
16 11 15 1
17 12 14 1
18 12 16 2
19 14 15 1
20 1 18 1
21 2 19 1
22 3 20 1
23 4 21 1
24 5 22 1
25 6 23 1
26 14 27 1
27 15 24 1
28 16 25 1
29 16 26 1

@<COSMOlogic>TOTAL_CHARGE
1.0
