# Created by COSMOvis on Mon Aug 09 22:24:21 CEST 2021
#
#

#
#

@<TRIPOS>MOLECULE
SAMPL8-17_micro003_c0
39 41
SMALL
USER_CHARGES

@<TRIPOS>ATOM
1 C -1.566700 0.039600 -4.240900 C 0 XO 0.000000
2 C -0.216200 -0.024600 -4.578800 C 1 XO 0.000000
3 C 0.457300 1.034000 -2.452800 C 2 XO 0.000000
4 C -1.912800 0.603800 -3.006000 C 3 XO 0.000000
5 C -0.902000 1.077500 -2.127200 C 4 XO 0.000000
6 C 0.758900 0.472000 -3.691100 C 5 XO 0.000000
7 C -2.908400 1.390700 -1.302800 C 6 XO 0.000000
8 C 0.528700 0.282800 0.984900 C 7 XO 0.000000
9 C -0.227100 2.092900 2.558200 C 8 XO 0.000000
10 C 1.149400 -0.413500 2.198800 C 9 XO 0.000000
11 C 0.441800 1.291900 3.675500 C 10 XO 0.000000
12 C -0.658800 1.203600 1.362800 C 11 XO 0.000000
13 C -1.001100 2.180000 0.200600 C 12 XO 0.000000
14 C -1.867900 0.327900 1.722200 C 13 XO 0.000000
15 N -3.171200 0.819300 -2.450300 N 14 XO 0.000000
16 N -1.577400 1.576000 -1.011600 N 15 XO 0.000000
17 N -3.937400 1.837400 -0.390700 N 16 XO 1.000000
18 O 1.567900 0.533400 3.197300 O 17 XO 0.000000
19 O -3.029600 1.168000 1.992700 O 18 XO 0.000000
20 Br 2.610300 0.372500 -4.222200 Br 19 XO 0.000000
21 H -2.331800 -0.330800 -4.923700 H 20 XO 0.000000
22 H 0.087500 -0.454600 -5.532500 H 21 XO 0.000000
23 H 1.234300 1.415800 -1.793700 H 22 XO 0.000000
24 H 1.310800 0.899300 0.514700 H 23 XO 0.000000
25 H 0.222700 -0.477900 0.249700 H 24 XO 0.000000
26 H -1.098700 2.628100 2.964400 H 25 XO 0.000000
27 H 0.485200 2.853000 2.197600 H 26 XO 0.000000
28 H 0.446300 -1.138500 2.651500 H 27 XO 0.000000
29 H 2.051700 -0.962500 1.899400 H 28 XO 0.000000
30 H 0.833100 1.968300 4.446600 H 29 XO 0.000000
31 H -0.279100 0.606100 4.161100 H 30 XO 0.000000
32 H -0.090500 2.712600 -0.103800 H 31 XO 0.000000
33 H -1.704600 2.945400 0.555500 H 32 XO 0.000000
34 H -1.660900 -0.276200 2.613800 H 33 XO 0.000000
35 H -2.101500 -0.363300 0.895900 H 34 XO 0.000000
36 H -4.086500 2.856900 -0.443700 H 35 XO 0.000000
37 H -3.699400 1.574000 0.646000 H 36 XO 0.000000
38 H -3.652700 0.668400 2.552700 H 37 XO 0.000000
39 H -4.830100 1.393100 -0.649300 H 38 XO 0.000000

@<TRIPOS>BOND
1 1 2 ar
2 1 4 ar
3 2 6 ar
4 3 5 ar
5 3 6 ar
6 4 5 ar
7 4 15 ar
8 5 16 ar
9 6 20 1
10 7 15 ar
11 7 16 ar
12 7 17 1
13 8 10 1
14 8 12 1
15 9 11 1
16 9 12 1
17 10 18 1
18 11 18 1
19 12 13 1
20 12 14 1
21 13 16 1
22 14 19 1
23 1 21 1
24 2 22 1
25 3 23 1
26 8 24 1
27 8 25 1
28 9 26 1
29 9 27 1
30 10 28 1
31 10 29 1
32 11 30 1
33 11 31 1
34 13 32 1
35 13 33 1
36 14 34 1
37 14 35 1
38 17 36 1
39 17 37 1
40 17 39 1
41 19 38 1

@<COSMOlogic>TOTAL_CHARGE
1.0
