# Created by COSMOvis on Mon Aug 09 22:24:20 CEST 2021
#
#

#
#

@<TRIPOS>MOLECULE
SAMPL8-14_extra005_c0
43 44
SMALL
USER_CHARGES

@<TRIPOS>ATOM
1 C -1.033100 -3.179700 2.447000 C 0 XO 0.000000
2 C -2.187700 -1.988300 0.705600 C 1 XO 0.000000
3 C -3.464000 -5.054800 -1.379400 C 2 XO 0.000000
4 C -1.661900 -3.200300 1.189800 C 3 XO 0.000000
5 C -0.924600 -2.006600 3.197900 C 4 XO 0.000000
6 C -2.109500 -0.779200 1.405800 C 5 XO 0.000000
7 C -3.147300 -4.858100 -0.066100 C 6 XO 0.000000
8 C -1.460300 -0.754400 2.710500 C 7 XO 0.000000
9 C -4.230700 -5.069400 0.869400 C 8 XO 0.000000
10 C -5.694000 -5.665100 -0.816200 C 9 XO 0.000000
11 C -0.245000 -2.002600 4.542900 C 10 XO 0.000000
12 C -3.796900 1.059500 1.776100 C 11 XO 0.000000
13 C -3.351300 0.312700 -0.561000 C 12 XO 0.000000
14 C -1.586100 1.576900 0.665800 C 13 XO 0.000000
15 C -1.751600 -4.484500 0.377600 C 14 XO 0.000000
16 C -2.704100 0.516900 0.822400 C 15 XO 0.000000
17 N -4.723100 -5.442900 -1.756600 N 16 XO 0.000000
18 N -5.459600 -5.475800 0.482300 N 17 XO 0.000000
19 N -4.031500 -4.890700 2.183600 N 18 XO 0.000000
20 N -6.901800 -6.081000 -1.225600 N 19 XO 1.000000
21 O -1.349000 0.319000 3.430600 O 20 XO -1.000000
22 H -0.605000 -4.107400 2.847400 H 21 XO 0.000000
23 H -2.681400 -2.004700 -0.269000 H 22 XO 0.000000
24 H -2.750100 -4.928000 -2.191300 H 23 XO 0.000000
25 H 0.121900 -3.004900 4.808600 H 24 XO 0.000000
26 H 0.608000 -1.303400 4.561900 H 25 XO 0.000000
27 H -0.927800 -1.659600 5.338500 H 26 XO 0.000000
28 H -4.199200 2.013600 1.397100 H 27 XO 0.000000
29 H -4.631900 0.345000 1.852500 H 28 XO 0.000000
30 H -3.373800 1.218900 2.776400 H 29 XO 0.000000
31 H -2.626500 -0.046000 -1.308200 H 30 XO 0.000000
32 H -4.188900 -0.401200 -0.524600 H 31 XO 0.000000
33 H -3.750200 1.274400 -0.919200 H 32 XO 0.000000
34 H -2.006100 2.527600 0.298000 H 33 XO 0.000000
35 H -1.097300 1.749300 1.633600 H 34 XO 0.000000
36 H -0.830200 1.236800 -0.059700 H 35 XO 0.000000
37 H -1.119500 -4.432300 -0.524900 H 36 XO 0.000000
38 H -1.343200 -5.312500 0.983200 H 37 XO 0.000000
39 H -3.199700 -4.390700 2.502500 H 38 XO 0.000000
40 H -4.818000 -4.981600 2.822100 H 39 XO 0.000000
41 H -7.128800 -6.206200 -2.206400 H 40 XO 0.000000
42 H -7.635900 -6.209900 -0.537100 H 41 XO 0.000000
43 H -4.926700 -5.578500 -2.746100 H 42 XO 0.000000

@<TRIPOS>BOND
1 1 4 ar
2 1 5 ar
3 2 4 ar
4 2 6 ar
5 3 7 2
6 3 17 1
7 4 15 1
8 5 8 ar
9 5 11 1
10 6 8 ar
11 6 16 1
12 7 9 1
13 7 15 1
14 8 21 1
15 9 18 2
16 9 19 1
17 10 17 1
18 10 18 1
19 10 20 2
20 12 16 1
21 13 16 1
22 14 16 1
23 1 22 1
24 2 23 1
25 3 24 1
26 11 25 1
27 11 26 1
28 11 27 1
29 12 28 1
30 12 29 1
31 12 30 1
32 13 31 1
33 13 32 1
34 13 33 1
35 14 34 1
36 14 35 1
37 14 36 1
38 15 37 1
39 15 38 1
40 17 43 1
41 19 39 1
42 19 40 1
43 20 41 1
44 20 42 1

@<COSMOlogic>TOTAL_CHARGE
0.0
