# Created by COSMOvis on Mon Aug 09 22:24:23 CEST 2021
#
#

#
#

@<TRIPOS>MOLECULE
SAMPL8-22_extra002_c0
27 28
SMALL
USER_CHARGES

@<TRIPOS>ATOM
1 C 2.487300 -1.225700 0.703300 C 0 XO 0.000000
2 C 1.806600 1.477700 1.147500 C 1 XO 0.000000
3 C 3.397400 -0.368500 1.365800 C 2 XO 0.000000
4 C 3.052500 0.995500 1.587900 C 3 XO 0.000000
5 C 1.260900 -0.746900 0.271400 C 4 XO 0.000000
6 C 0.913200 0.634100 0.497900 C 5 XO 0.000000
7 C 4.677200 -0.807200 1.834300 C 6 XO 0.000000
8 C 5.036800 1.418700 2.627400 C 7 XO 0.000000
9 C 0.610200 -2.869500 -0.627700 C 8 XO 0.000000
10 C -0.715200 2.372700 0.238400 C 9 XO 0.000000
11 N 3.906400 1.880000 2.231600 N 10 XO 0.000000
12 N 5.460900 0.123300 2.460700 N 11 XO 0.000000
13 N 5.150500 -2.040400 1.705100 N 12 XO 1.000000
14 O 0.319100 -1.477300 -0.367900 O 13 XO 0.000000
15 O -0.299600 0.999500 0.041000 O 14 XO 0.000000
16 Cl 6.184300 2.447600 3.450000 Cl 15 XO 0.000000
17 H 2.739500 -2.269500 0.528300 H 16 XO 0.000000
18 H 1.568000 2.523300 1.329600 H 17 XO 0.000000
19 H -0.272800 -3.257400 -1.143600 H 18 XO 0.000000
20 H 0.763600 -3.417000 0.313700 H 19 XO 0.000000
21 H 1.494500 -2.967400 -1.274200 H 20 XO 0.000000
22 H -0.760600 2.611800 1.310300 H 21 XO 0.000000
23 H -1.714300 2.435700 -0.201900 H 22 XO 0.000000
24 H -0.032000 3.061100 -0.278800 H 23 XO 0.000000
25 H 6.068800 -2.305100 2.053200 H 24 XO 0.000000
26 H 4.608900 -2.766200 1.247000 H 25 XO 0.000000
27 H 6.381300 -0.147600 2.812200 H 26 XO 0.000000

@<TRIPOS>BOND
1 1 3 ar
2 1 5 ar
3 2 4 ar
4 2 6 ar
5 3 4 ar
6 3 7 1
7 4 11 1
8 5 6 ar
9 5 14 1
10 6 15 1
11 7 12 1
12 7 13 2
13 8 11 2
14 8 12 1
15 8 16 1
16 9 14 1
17 10 15 1
18 1 17 1
19 2 18 1
20 9 19 1
21 9 20 1
22 9 21 1
23 10 22 1
24 10 23 1
25 10 24 1
26 12 27 1
27 13 25 1
28 13 26 1

@<COSMOlogic>TOTAL_CHARGE
1.0
