# Created by COSMOvis on Mon Aug 09 22:24:22 CEST 2021
#
#

#
#

@<TRIPOS>MOLECULE
SAMPL8-21_micro016_c0
39 40
SMALL
USER_CHARGES

@<TRIPOS>ATOM
1 C 2.184100 2.165500 1.130500 C 0 XO 0.000000
2 O 1.650600 0.832300 1.226300 O 1 XO 0.000000
3 C 0.531800 0.531200 0.478500 C 2 XO 0.000000
4 C -0.141100 1.410400 -0.376600 C 3 XO 0.000000
5 C -1.270100 0.969100 -1.080900 C 4 XO 0.000000
6 C -1.712000 -0.353300 -0.919600 C 5 XO 0.000000
7 C -1.034000 -1.240200 -0.067200 C 6 XO 0.000000
8 C 0.092200 -0.794700 0.645700 C 7 XO 0.000000
9 O 0.760900 -1.662400 1.480200 O 8 XO 0.000000
10 O -1.382200 -2.553700 0.141000 O 9 XO 0.000000
11 C -2.523700 -3.056200 -0.577200 C 10 XO 0.000000
12 C -2.056200 1.932900 -1.968700 C 11 XO 0.000000
13 C -1.233700 2.947600 -2.720200 C 12 XO 0.000000
14 C -0.425200 2.549300 -3.858600 C 13 XO 0.000000
15 N 0.287000 3.533800 -4.538200 N 14 XO 0.000000
16 C 0.197300 4.785500 -4.096000 C 15 XO 0.000000
17 N 0.865100 5.765500 -4.833100 N 16 XO 0.000000
18 N -0.510000 5.245500 -3.035300 N 17 XO 0.000000
19 C -1.208300 4.295500 -2.381700 C 18 XO 0.000000
20 O -1.952700 4.696200 -1.295800 O 19 XO 0.000000
21 C -1.938200 6.098400 -0.957900 C 20 XO 0.000000
22 N -0.311400 1.305700 -4.315400 N 21 XO -1.000000
23 H 1.445400 2.909300 1.465500 H 22 XO 0.000000
24 H 2.500300 2.389700 0.100500 H 23 XO 0.000000
25 H 3.053800 2.184300 1.795000 H 24 XO 0.000000
26 H 0.208400 2.432500 -0.519200 H 25 XO 0.000000
27 H -2.586500 -0.693300 -1.474700 H 26 XO 0.000000
28 H 1.509000 -1.161400 1.866900 H 27 XO 0.000000
29 H -2.366000 -3.000700 -1.665400 H 28 XO 0.000000
30 H -3.438600 -2.506500 -0.307100 H 29 XO 0.000000
31 H -2.622500 -4.103800 -0.273900 H 30 XO 0.000000
32 H -2.787700 2.465000 -1.340300 H 31 XO 0.000000
33 H -2.649300 1.329700 -2.679700 H 32 XO 0.000000
34 H 1.093700 6.604400 -4.303400 H 33 XO 0.000000
35 H 1.645600 5.412500 -5.383200 H 34 XO 0.000000
36 H -0.923800 6.439300 -0.708900 H 35 XO 0.000000
37 H -2.589400 6.185100 -0.080500 H 36 XO 0.000000
38 H -2.330700 6.712500 -1.780500 H 37 XO 0.000000
39 H -0.854900 0.681300 -3.707500 H 38 XO 0.000000

@<TRIPOS>BOND
1 1 2 1
2 2 3 1
3 3 4 ar
4 3 8 ar
5 4 5 ar
6 5 6 ar
7 5 12 1
8 6 7 ar
9 7 8 ar
10 7 10 1
11 8 9 1
12 10 11 1
13 12 13 1
14 13 14 ar
15 13 19 ar
16 14 15 ar
17 14 22 1
18 15 16 ar
19 16 17 1
20 16 18 ar
21 18 19 ar
22 19 20 1
23 20 21 1
24 1 23 1
25 1 24 1
26 1 25 1
27 4 26 1
28 6 27 1
29 9 28 1
30 11 29 1
31 11 30 1
32 11 31 1
33 12 32 1
34 12 33 1
35 17 34 1
36 17 35 1
37 21 36 1
38 21 37 1
39 21 38 1
40 22 39 1

@<COSMOlogic>TOTAL_CHARGE
-1.0
