# Created by COSMOvis on Mon Aug 09 22:24:21 CEST 2021
#
#

#
#

@<TRIPOS>MOLECULE
SAMPL8-17_micro004_c0
38 40
SMALL
USER_CHARGES

@<TRIPOS>ATOM
1 C -1.494200 2.268900 -4.333600 C 0 XO 0.000000
2 C -0.274200 1.679200 -4.706600 C 1 XO 0.000000
3 C -0.155100 0.446200 -2.578100 C 2 XO 0.000000
4 C -2.023500 1.939800 -3.091100 C 3 XO 0.000000
5 C -1.369800 1.030800 -2.224200 C 4 XO 0.000000
6 C 0.364100 0.796000 -3.832100 C 5 XO 0.000000
7 C -3.258700 1.767000 -1.179300 C 6 XO 0.000000
8 C -1.748100 -2.177300 -0.731300 C 7 XO 0.000000
9 C -1.902700 -1.704000 1.731700 C 8 XO 0.000000
10 C -1.952200 -3.654900 -0.389100 C 9 XO 0.000000
11 C -2.089800 -3.207700 1.931700 C 10 XO 0.000000
12 C -2.351700 -1.225200 0.328500 C 11 XO 0.000000
13 C -1.799500 0.215400 0.162300 C 12 XO 0.000000
14 C -3.897000 -1.230800 0.212200 C 13 XO 0.000000
15 N -3.170800 2.357100 -2.430500 N 14 XO 0.000000
16 N -2.150900 0.918600 -1.073300 N 15 XO 0.000000
17 N -4.141300 1.925200 -0.237500 N 16 XO 0.000000
18 O -1.423000 -3.977200 0.911100 O 17 XO 0.000000
19 O -4.555600 -0.369500 1.143300 O 18 XO 0.000000
20 Br 2.045600 0.008600 -4.370700 Br 19 XO 0.000000
21 H -1.998400 2.968100 -5.000900 H 20 XO 0.000000
22 H 0.167200 1.916400 -5.673600 H 21 XO 0.000000
23 H 0.367300 -0.246400 -1.921800 H 22 XO 0.000000
24 H -0.663100 -1.996300 -0.798700 H 23 XO 0.000000
25 H -2.175400 -1.975200 -1.727700 H 24 XO 0.000000
26 H -2.470300 -1.161400 2.504200 H 25 XO 0.000000
27 H -0.836300 -1.462100 1.875900 H 26 XO 0.000000
28 H -3.022300 -3.932700 -0.426900 H 27 XO 0.000000
29 H -1.412500 -4.292100 -1.102600 H 28 XO 0.000000
30 H -1.651500 -3.527700 2.886700 H 29 XO 0.000000
31 H -3.163400 -3.475600 1.943600 H 30 XO 0.000000
32 H -0.701700 0.191400 0.226300 H 31 XO 0.000000
33 H -2.163200 0.837700 0.993400 H 32 XO 0.000000
34 H -4.277900 -2.247400 0.387700 H 33 XO 0.000000
35 H -4.172900 -0.961900 -0.825100 H 34 XO 0.000000
36 H -4.867500 2.592600 -0.509400 H 35 XO 0.000000
37 H -4.465100 0.558400 0.749100 H 36 XO 0.000000
38 H -3.853400 3.020300 -2.784200 H 37 XO 0.000000

@<TRIPOS>BOND
1 1 2 ar
2 1 4 ar
3 2 6 ar
4 3 5 ar
5 3 6 ar
6 4 5 ar
7 4 15 1
8 5 16 1
9 6 20 1
10 7 15 1
11 7 16 1
12 7 17 2
13 8 10 1
14 8 12 1
15 9 11 1
16 9 12 1
17 10 18 1
18 11 18 1
19 12 13 1
20 12 14 1
21 13 16 1
22 14 19 1
23 1 21 1
24 2 22 1
25 3 23 1
26 8 24 1
27 8 25 1
28 9 26 1
29 9 27 1
30 10 28 1
31 10 29 1
32 11 30 1
33 11 31 1
34 13 32 1
35 13 33 1
36 14 34 1
37 14 35 1
38 15 38 1
39 17 36 1
40 19 37 1

@<COSMOlogic>TOTAL_CHARGE
0.0
