# Created by COSMOvis on Mon Aug 09 22:24:23 CEST 2021
#
#

#
#

@<TRIPOS>MOLECULE
SAMPL8-3_extra002_c0
32 33
SMALL
USER_CHARGES

@<TRIPOS>ATOM
1 C -4.078100 2.597200 4.047100 C 0 XO 0.000000
2 C -2.732900 2.145000 4.236900 C 1 XO 0.000000
3 C 1.929500 -1.095800 -0.174900 C 2 XO 0.000000
4 C 1.432900 -0.604900 2.524600 C 3 XO 0.000000
5 C -4.270700 2.679200 2.695700 C 4 XO 0.000000
6 C 0.655500 -0.651000 0.212300 C 5 XO 0.000000
7 C 0.433900 -0.407600 1.581400 C 6 XO 0.000000
8 C 2.952300 -1.298900 0.750000 C 7 XO 0.000000
9 C 2.688800 -1.050200 2.104400 C 8 XO 0.000000
10 C -2.192800 1.986200 2.987000 C 9 XO 0.000000
11 C -0.429600 -0.476500 -0.789000 C 10 XO 0.000000
12 C -0.864600 1.556800 2.511100 C 11 XO 0.000000
13 N 4.903500 -3.340400 0.744300 N 12 XO 0.000000
14 N -0.875200 0.086300 2.039000 N 13 XO 1.000000
15 O -1.586200 -0.146800 -0.497000 O 14 XO 0.000000
16 O 4.340800 -2.080800 -1.368900 O 15 XO -1.000000
17 O 5.540400 -0.783000 0.472100 O 16 XO 0.000000
18 O -3.131500 2.312500 2.025100 O 17 XO 0.000000
19 O -0.044000 -0.716100 -2.045900 O 18 XO 0.000000
20 S 4.595700 -1.916600 0.112900 S 19 XO 0.000000
21 Cl 3.908800 -1.290000 3.343500 Cl 20 XO 0.000000
22 H -4.805900 2.835200 4.816800 H 21 XO 0.000000
23 H -2.225800 1.965700 5.180600 H 22 XO 0.000000
24 H 2.137300 -1.298900 -1.224600 H 23 XO 0.000000
25 H 1.244900 -0.425100 3.583200 H 24 XO 0.000000
26 H -5.108500 2.969500 2.071100 H 25 XO 0.000000
27 H -0.516200 2.140000 1.650100 H 26 XO 0.000000
28 H -0.127400 1.628100 3.316800 H 27 XO 0.000000
29 H 5.218400 -3.179700 1.711600 H 28 XO 0.000000
30 H -1.241900 -0.511500 2.793400 H 29 XO 0.000000
31 H -0.815500 -0.589900 -2.641100 H 30 XO 0.000000
32 H -1.522800 -0.001600 1.207200 H 31 XO 0.000000

@<TRIPOS>BOND
1 1 2 ar
2 1 5 ar
3 2 10 ar
4 3 6 ar
5 3 8 ar
6 4 7 ar
7 4 9 ar
8 5 18 ar
9 6 7 ar
10 6 11 1
11 7 14 1
12 8 9 ar
13 8 20 1
14 9 21 1
15 10 12 1
16 10 18 ar
17 11 15 2
18 11 19 1
19 12 14 1
20 13 20 2
21 16 20 1
22 17 20 2
23 1 22 1
24 2 23 1
25 3 24 1
26 4 25 1
27 5 26 1
28 12 27 1
29 12 28 1
30 13 29 1
31 14 30 1
32 14 32 1
33 19 31 1

@<COSMOlogic>TOTAL_CHARGE
0.0
