# Created by COSMOvis on Mon Aug 09 22:24:23 CEST 2021
#
#

#
#

@<TRIPOS>MOLECULE
SAMPL8-23_micro007_c0
18 19
SMALL
USER_CHARGES

@<TRIPOS>ATOM
1 C -2.598600 -0.202600 0.534900 C 0 XO 0.000000
2 C -1.550800 -0.612700 1.357400 C 1 XO 0.000000
3 C -1.031800 0.576700 -1.172600 C 2 XO 0.000000
4 C 0.030300 0.166100 -0.349700 C 3 XO 0.000000
5 C -2.340000 0.387700 -0.720700 C 4 XO 0.000000
6 C -0.237800 -0.427000 0.911500 C 5 XO 0.000000
7 C 2.148500 -0.169600 0.270800 C 6 XO 0.000000
8 C 3.640100 -0.180100 0.228400 C 7 XO 0.000000
9 N 1.377300 0.293200 -0.673400 N 8 XO 0.000000
10 O -3.436100 0.760300 -1.463300 O 9 XO 0.000000
11 S 1.287100 -0.829100 1.697200 S 10 XO 0.000000
12 H -3.633200 -0.334100 0.854100 H 11 XO 0.000000
13 H -1.763000 -1.067700 2.325200 H 12 XO 0.000000
14 H -0.828100 1.033100 -2.143500 H 13 XO 0.000000
15 H 4.031500 -1.205900 0.297200 H 14 XO 0.000000
16 H 3.978300 0.266300 -0.714400 H 15 XO 0.000000
17 H 4.064900 0.391800 1.066500 H 16 XO 0.000000
18 H -3.138800 1.153500 -2.305700 H 17 XO 0.000000

@<TRIPOS>BOND
1 1 2 ar
2 1 5 ar
3 2 6 ar
4 3 4 ar
5 3 5 ar
6 4 6 ar
7 4 9 ar
8 5 10 1
9 6 11 ar
10 7 8 1
11 7 9 ar
12 7 11 ar
13 1 12 1
14 2 13 1
15 3 14 1
16 8 15 1
17 8 16 1
18 8 17 1
19 10 18 1

@<COSMOlogic>TOTAL_CHARGE
0.0
