# Created by COSMOvis on Mon Aug 09 22:24:20 CEST 2021
#
#

#
#

@<TRIPOS>MOLECULE
SAMPL8-12_micro002_c0
41 43
SMALL
USER_CHARGES

@<TRIPOS>ATOM
1 C 6.520800 1.867000 2.837800 C 0 XO 0.000000
2 C 5.215000 1.145600 2.606400 C 1 XO 0.000000
3 C 4.065100 1.460700 3.344800 C 2 XO 0.000000
4 C 2.857900 0.781300 3.132900 C 3 XO 0.000000
5 C 2.761200 -0.235100 2.173500 C 4 XO 0.000000
6 C 3.913000 -0.554500 1.432000 C 5 XO 0.000000
7 C 5.115000 0.122200 1.644200 C 6 XO 0.000000
8 C 1.460000 -0.984000 1.949800 C 7 XO 0.000000
9 C 0.807400 -0.708400 0.605200 C 8 XO 0.000000
10 C 0.977600 0.529000 -0.047600 C 9 XO 0.000000
11 N 0.593600 0.852700 -1.280200 N 10 XO 0.000000
12 C -0.034500 -0.119200 -2.031200 C 11 XO 0.000000
13 N -0.431600 0.006500 -3.265700 N 12 XO 0.000000
14 N -0.289100 -1.352000 -1.397300 N 13 XO 0.000000
15 C 0.094400 -1.678200 -0.123600 C 14 XO 0.000000
16 N -0.205500 -2.943900 0.326900 N 15 XO 0.000000
17 C -0.862000 -3.125800 1.640700 C 16 XO 0.000000
18 C -0.578400 -4.522300 2.176500 C 17 XO 0.000000
19 O -1.003600 -5.534500 1.246900 O 18 XO 0.000000
20 C -0.322600 -5.364700 -0.005800 C 19 XO 0.000000
21 C -0.600000 -3.996300 -0.626800 C 20 XO 0.000000
22 H 6.396900 2.698100 3.545200 H 21 XO 0.000000
23 H 6.925400 2.274000 1.898700 H 22 XO 0.000000
24 H 7.284000 1.186500 3.247400 H 23 XO 0.000000
25 H 4.111000 2.250600 4.099000 H 24 XO 0.000000
26 H 1.979000 1.048100 3.725600 H 25 XO 0.000000
27 H 3.866400 -1.344800 0.678200 H 26 XO 0.000000
28 H 5.994800 -0.150100 1.055200 H 27 XO 0.000000
29 H 1.663600 -2.065000 2.017300 H 28 XO 0.000000
30 H 0.775200 -0.744900 2.781200 H 29 XO 0.000000
31 H 1.511100 1.317500 0.494100 H 30 XO 0.000000
32 H -0.197300 0.957600 -3.573300 H 31 XO 0.000000
33 H -0.864000 -2.003800 -1.930100 H 32 XO 0.000000
34 H -0.511700 -2.373900 2.353500 H 33 XO 0.000000
35 H -1.951600 -2.990800 1.513400 H 34 XO 0.000000
36 H -1.142100 -4.689100 3.103100 H 35 XO 0.000000
37 H 0.501900 -4.638200 2.384400 H 36 XO 0.000000
38 H -0.688100 -6.154300 -0.674300 H 37 XO 0.000000
39 H 0.766000 -5.490400 0.141100 H 38 XO 0.000000
40 H -1.672400 -3.916000 -0.886300 H 39 XO 0.000000
41 H -0.001200 -3.908400 -1.543100 H 40 XO 0.000000

@<TRIPOS>BOND
1 1 2 1
2 2 3 ar
3 2 7 ar
4 3 4 ar
5 4 5 ar
6 5 6 ar
7 5 8 1
8 6 7 ar
9 8 9 1
10 9 10 1
11 9 15 2
12 10 11 2
13 11 12 1
14 12 13 2
15 12 14 1
16 14 15 1
17 15 16 1
18 16 17 1
19 16 21 1
20 17 18 1
21 18 19 1
22 19 20 1
23 20 21 1
24 1 22 1
25 1 23 1
26 1 24 1
27 3 25 1
28 4 26 1
29 6 27 1
30 7 28 1
31 8 29 1
32 8 30 1
33 10 31 1
34 13 32 1
35 14 33 1
36 17 34 1
37 17 35 1
38 18 36 1
39 18 37 1
40 20 38 1
41 20 39 1
42 21 40 1
43 21 41 1

@<COSMOlogic>TOTAL_CHARGE
0.0
