# Created by COSMOvis on Mon Aug 09 22:24:22 CEST 2021
#
#

#
#

@<TRIPOS>MOLECULE
SAMPL8-21_micro027_c0
39 40
SMALL
USER_CHARGES

@<TRIPOS>ATOM
1 C 2.863200 -0.136800 2.265500 C 0 XO 0.000000
2 O 1.883700 -0.983200 1.655700 O 1 XO 0.000000
3 C 0.896900 -0.367200 0.892600 C 2 XO 0.000000
4 C 0.822500 1.017300 0.699800 C 3 XO 0.000000
5 C -0.193900 1.579500 -0.090200 C 4 XO 0.000000
6 C -1.134800 0.718800 -0.680700 C 5 XO 0.000000
7 C -1.060700 -0.667300 -0.488200 C 6 XO 0.000000
8 C -0.043500 -1.293900 0.314700 C 7 XO 0.000000
9 O 0.028300 -2.576900 0.492600 O 8 XO -1.000000
10 O -1.955600 -1.568900 -1.055900 O 9 XO 0.000000
11 C -2.992600 -1.029700 -1.881800 C 10 XO 0.000000
12 C -0.328100 3.090900 -0.250800 C 11 XO 0.000000
13 C 0.966200 3.829200 -0.489800 C 12 XO 0.000000
14 C 1.682400 3.636200 -1.734400 C 13 XO 0.000000
15 N 1.365000 2.853500 -2.727300 N 14 XO 0.000000
16 N 2.857700 4.395300 -1.895600 N 15 XO 0.000000
17 C 3.401400 5.281300 -0.991400 C 16 XO 0.000000
18 N 4.484500 5.978900 -1.121700 N 17 XO 0.000000
19 N 2.661200 5.400900 0.182600 N 18 XO 0.000000
20 C 1.492900 4.711200 0.425000 C 19 XO 0.000000
21 O 0.862000 4.924800 1.600600 O 20 XO 0.000000
22 C 1.391200 5.891300 2.541300 C 21 XO 0.000000
23 H 2.404400 0.571800 2.975900 H 22 XO 0.000000
24 H 3.436600 0.430800 1.513300 H 23 XO 0.000000
25 H 3.541900 -0.804600 2.809100 H 24 XO 0.000000
26 H 1.564000 1.678600 1.151200 H 25 XO 0.000000
27 H -1.926600 1.147200 -1.298800 H 26 XO 0.000000
28 H -2.581700 -0.491800 -2.753000 H 27 XO 0.000000
29 H -3.650400 -0.347600 -1.317200 H 28 XO 0.000000
30 H -3.577100 -1.889300 -2.230600 H 29 XO 0.000000
31 H -0.813600 3.526800 0.636400 H 30 XO 0.000000
32 H -1.014000 3.288800 -1.093700 H 31 XO 0.000000
33 H 0.522100 2.321700 -2.480200 H 32 XO 0.000000
34 H 3.358600 4.253900 -2.771700 H 33 XO 0.000000
35 H 4.926800 5.792100 -2.027800 H 34 XO 0.000000
36 H 3.045700 6.041200 0.873200 H 35 XO 0.000000
37 H 1.415400 6.898200 2.100700 H 36 XO 0.000000
38 H 2.387800 5.592400 2.896500 H 37 XO 0.000000
39 H 0.690900 5.879300 3.381100 H 38 XO 0.000000

@<TRIPOS>BOND
1 1 2 1
2 2 3 1
3 3 4 ar
4 3 8 ar
5 4 5 ar
6 5 6 ar
7 5 12 1
8 6 7 ar
9 7 8 ar
10 7 10 1
11 8 9 1
12 10 11 1
13 12 13 1
14 13 14 ar
15 13 20 ar
16 14 15 2
17 14 16 ar
18 16 17 ar
19 17 18 2
20 17 19 ar
21 19 20 ar
22 20 21 1
23 21 22 1
24 1 23 1
25 1 24 1
26 1 25 1
27 4 26 1
28 6 27 1
29 11 28 1
30 11 29 1
31 11 30 1
32 12 31 1
33 12 32 1
34 15 33 1
35 16 34 1
36 18 35 1
37 19 36 1
38 22 37 1
39 22 38 1
40 22 39 1

@<COSMOlogic>TOTAL_CHARGE
-1.0
