# Created by COSMOvis on Mon Aug 09 22:24:20 CEST 2021
#
#

#
#

@<TRIPOS>MOLECULE
SAMPL8-10_micro000_c0
46 48
SMALL
USER_CHARGES

@<TRIPOS>ATOM
1 C 7.772700 -1.718700 0.544600 C 0 XO 0.000000
2 C -2.987800 -2.508000 6.251500 C 1 XO 0.000000
3 C 6.435100 -1.817600 0.934300 C 2 XO 0.000000
4 C 3.103400 -3.009900 -0.237700 C 3 XO 0.000000
5 C 3.765300 -2.710700 2.067100 C 4 XO 0.000000
6 C 1.769600 -3.106800 0.159000 C 5 XO 0.000000
7 C 2.428200 -2.816100 2.459400 C 6 XO 0.000000
8 C -3.195600 -3.531400 5.324200 C 7 XO 0.000000
9 C 8.264400 -2.498100 -0.507000 C 8 XO 0.000000
10 C -2.522300 -1.257200 5.833800 C 9 XO 0.000000
11 C 6.041300 -3.488300 -0.766900 C 10 XO 0.000000
12 C 4.126600 -2.806900 0.710400 C 11 XO 0.000000
13 C 5.545700 -2.700800 0.289200 C 12 XO 0.000000
14 C 1.410800 -3.014400 1.514200 C 13 XO 0.000000
15 C -2.459400 -2.041200 3.497200 C 14 XO 0.000000
16 C -2.927600 -3.268800 3.984900 C 15 XO 0.000000
17 C 7.378900 -3.369700 -1.144600 C 16 XO 0.000000
18 C -2.268000 -1.052600 4.477700 C 17 XO 0.000000
19 C 7.669900 -3.458000 -4.011700 C 18 XO 0.000000
20 C -0.036800 -3.095200 1.940100 C 19 XO 0.000000
21 C -2.160200 -1.824300 2.018800 C 20 XO 0.000000
22 N -0.735900 -1.828600 1.643600 N 21 XO 0.000000
23 O 9.481700 -4.556500 -2.346100 O 22 XO 0.000000
24 O 7.156900 -5.660600 -2.547200 O 23 XO 0.000000
25 F -3.142100 -4.278200 3.084200 F 24 XO 0.000000
26 S 7.993800 -4.412400 -2.504100 S 25 XO 0.000000
27 Cl -1.678900 0.549500 3.977600 Cl 26 XO 0.000000
28 H 8.438700 -1.025100 1.059700 H 27 XO 0.000000
29 H -3.189800 -2.683300 7.308700 H 28 XO 0.000000
30 H 6.068900 -1.184300 1.744100 H 29 XO 0.000000
31 H 3.350700 -3.071300 -1.299300 H 30 XO 0.000000
32 H 4.537000 -2.578800 2.827600 H 31 XO 0.000000
33 H 0.992700 -3.253200 -0.595000 H 32 XO 0.000000
34 H 2.174400 -2.755900 3.520500 H 33 XO 0.000000
35 H -3.558300 -4.514200 5.625100 H 34 XO 0.000000
36 H 9.308100 -2.435800 -0.814900 H 35 XO 0.000000
37 H -2.361800 -0.453100 6.551000 H 36 XO 0.000000
38 H 5.396300 -4.211900 -1.266800 H 37 XO 0.000000
39 H 8.219000 -2.512600 -3.943500 H 38 XO 0.000000
40 H 8.035300 -4.071000 -4.844300 H 39 XO 0.000000
41 H 6.589600 -3.291600 -4.086600 H 40 XO 0.000000
42 H -0.550300 -3.891500 1.378100 H 41 XO 0.000000
43 H -0.082700 -3.370500 3.012600 H 42 XO 0.000000
44 H -2.667100 -2.602900 1.434300 H 43 XO 0.000000
45 H -2.581700 -0.857300 1.711500 H 44 XO 0.000000
46 H -0.255600 -1.057400 2.117300 H 45 XO 0.000000

@<TRIPOS>BOND
1 1 3 ar
2 1 9 ar
3 2 8 ar
4 2 10 ar
5 3 13 ar
6 4 6 ar
7 4 12 ar
8 5 7 ar
9 5 12 ar
10 6 14 ar
11 7 14 ar
12 8 16 ar
13 9 17 ar
14 10 18 ar
15 11 13 ar
16 11 17 ar
17 12 13 1
18 14 20 1
19 15 16 ar
20 15 18 ar
21 15 21 1
22 16 25 1
23 17 26 1
24 18 27 1
25 19 26 1
26 20 22 1
27 21 22 1
28 23 26 2
29 24 26 2
30 1 28 1
31 2 29 1
32 3 30 1
33 4 31 1
34 5 32 1
35 6 33 1
36 7 34 1
37 8 35 1
38 9 36 1
39 10 37 1
40 11 38 1
41 19 39 1
42 19 40 1
43 19 41 1
44 20 42 1
45 20 43 1
46 21 44 1
47 21 45 1
48 22 46 1

@<COSMOlogic>TOTAL_CHARGE
0.0
