# Created by COSMOvis on Mon Aug 09 22:24:21 CEST 2021
#
#

#
#

@<TRIPOS>MOLECULE
SAMPL8-14_micro005_c0
42 43
SMALL
USER_CHARGES

@<TRIPOS>ATOM
1 C -1.263300 -3.348700 -0.663300 C 0 XO 0.000000
2 C -0.896600 -1.883300 -0.637800 C 1 XO 0.000000
3 C 0.433000 -1.468000 -0.761500 C 2 XO 0.000000
4 C 0.779400 -0.111500 -0.740800 C 3 XO 0.000000
5 C -0.249300 0.828200 -0.582300 C 4 XO 0.000000
6 C -1.605300 0.478000 -0.448400 C 5 XO 0.000000
7 C -1.904600 -0.904800 -0.482000 C 6 XO 0.000000
8 O -3.222100 -1.301600 -0.353600 O 7 XO 0.000000
9 C -2.699000 1.553100 -0.272700 C 8 XO 0.000000
10 C -2.111000 2.978900 -0.268100 C 9 XO 0.000000
11 C -3.432000 1.351500 1.077100 C 10 XO 0.000000
12 C -3.712900 1.476100 -1.441000 C 11 XO 0.000000
13 C 2.227600 0.339800 -0.912100 C 12 XO 0.000000
14 C 3.240900 -0.378700 -0.053600 C 13 XO 0.000000
15 C 4.272700 -1.150600 -0.590700 C 14 XO 0.000000
16 N 5.223800 -1.787700 0.102300 N 15 XO 0.000000
17 C 5.171800 -1.664900 1.488400 C 16 XO 0.000000
18 N 4.168300 -0.932300 2.118500 N 17 XO 0.000000
19 C 3.250500 -0.314100 1.368500 C 18 XO 0.000000
20 N 2.312600 0.459200 2.038500 N 19 XO 0.000000
21 N 6.112200 -2.278500 2.199400 N 20 XO -1.000000
22 H -1.746400 -3.671800 0.274600 H 21 XO 0.000000
23 H -0.366900 -3.967000 -0.797200 H 22 XO 0.000000
24 H -1.953400 -3.590100 -1.489800 H 23 XO 0.000000
25 H 1.214600 -2.224600 -0.873100 H 24 XO 0.000000
26 H 0.025600 1.883700 -0.567000 H 25 XO 0.000000
27 H -3.265800 -2.275800 -0.400200 H 26 XO 0.000000
28 H -2.931400 3.701200 -0.142800 H 27 XO 0.000000
29 H -1.403600 3.132600 0.560300 H 28 XO 0.000000
30 H -1.598100 3.218500 -1.211700 H 29 XO 0.000000
31 H -2.726600 1.442800 1.917300 H 30 XO 0.000000
32 H -3.914900 0.368700 1.134100 H 31 XO 0.000000
33 H -4.205400 2.125900 1.199800 H 32 XO 0.000000
34 H -3.209000 1.656400 -2.403100 H 33 XO 0.000000
35 H -4.207900 0.498700 -1.486400 H 34 XO 0.000000
36 H -4.485900 2.250300 -1.313500 H 35 XO 0.000000
37 H 2.523700 0.203100 -1.967100 H 36 XO 0.000000
38 H 2.266600 1.429100 -0.730500 H 37 XO 0.000000
39 H 4.329800 -1.254000 -1.683600 H 38 XO 0.000000
40 H 2.230900 0.251700 3.033100 H 39 XO 0.000000
41 H 1.412600 0.570700 1.572800 H 40 XO 0.000000
42 H 5.915100 -2.079900 3.189300 H 41 XO 0.000000

@<TRIPOS>BOND
1 1 2 1
2 2 3 ar
3 2 7 ar
4 3 4 ar
5 4 5 ar
6 4 13 1
7 5 6 ar
8 6 7 ar
9 6 9 1
10 7 8 1
11 9 10 1
12 9 11 1
13 9 12 1
14 13 14 1
15 14 15 ar
16 14 19 ar
17 15 16 ar
18 16 17 ar
19 17 18 ar
20 17 21 1
21 18 19 ar
22 19 20 1
23 1 22 1
24 1 23 1
25 1 24 1
26 3 25 1
27 5 26 1
28 8 27 1
29 10 28 1
30 10 29 1
31 10 30 1
32 11 31 1
33 11 32 1
34 11 33 1
35 12 34 1
36 12 35 1
37 12 36 1
38 13 37 1
39 13 38 1
40 15 39 1
41 20 40 1
42 20 41 1
43 21 42 1

@<COSMOlogic>TOTAL_CHARGE
-1.0
