# Created by COSMOvis on Mon Aug 09 22:24:21 CEST 2021
#
#

#
#

@<TRIPOS>MOLECULE
SAMPL8-16_extra004_c0
34 35
SMALL
USER_CHARGES

@<TRIPOS>ATOM
1 C 2.978000 0.471100 1.415500 C 0 XO 0.000000
2 C 1.677200 0.985200 1.612200 C 1 XO 0.000000
3 C 3.724500 -0.046400 2.477900 C 2 XO 0.000000
4 C 1.080500 1.000100 2.876900 C 3 XO 0.000000
5 C 3.145800 -0.042200 3.756500 C 4 XO 0.000000
6 C 1.831300 0.481300 3.937900 C 5 XO 0.000000
7 C 2.689300 -0.243000 5.859600 C 6 XO 0.000000
8 C 0.470000 -0.974800 7.866600 C 7 XO 0.000000
9 C -2.450200 -1.456600 7.086800 C 8 XO 0.000000
10 C -2.399200 -2.988400 9.077800 C 9 XO 0.000000
11 C -2.191800 -0.509400 9.432800 C 10 XO 0.000000
12 C 2.719400 -0.546600 7.332400 C 11 XO 0.000000
13 C -1.868400 -1.675700 8.489300 C 12 XO 0.000000
14 N 3.653800 -0.491200 4.975000 N 13 XO 0.000000
15 N 1.583800 0.343100 5.290100 N 14 XO 0.000000
16 N 1.685100 -1.488600 7.779900 N 15 XO 0.000000
17 O 0.048300 0.180500 7.538500 O 16 XO -1.000000
18 O -0.416000 -1.913700 8.427100 O 17 XO 0.000000
19 H 3.406900 0.479500 0.411600 H 18 XO 0.000000
20 H 1.125000 1.381400 0.758000 H 19 XO 0.000000
21 H 4.729900 -0.443200 2.322800 H 20 XO 0.000000
22 H 0.076000 1.399900 3.024800 H 21 XO 0.000000
23 H -2.078000 -0.522200 6.651400 H 22 XO 0.000000
24 H -2.176500 -2.292400 6.425300 H 23 XO 0.000000
25 H -3.548200 -1.411700 7.143200 H 24 XO 0.000000
26 H -1.959800 -3.175000 10.068700 H 25 XO 0.000000
27 H -2.154200 -3.835400 8.420800 H 26 XO 0.000000
28 H -3.491900 -2.938800 9.187800 H 27 XO 0.000000
29 H -1.743100 -0.685200 10.422200 H 28 XO 0.000000
30 H -1.805400 0.433400 9.029400 H 29 XO 0.000000
31 H -3.281500 -0.425700 9.562700 H 30 XO 0.000000
32 H 3.707000 -0.979600 7.547300 H 31 XO 0.000000
33 H 2.656400 0.418300 7.876900 H 32 XO 0.000000
34 H 0.748600 0.532700 5.874100 H 33 XO 0.000000

@<TRIPOS>BOND
1 1 2 ar
2 1 3 ar
3 2 4 ar
4 3 5 ar
5 4 6 ar
6 5 6 ar
7 5 14 ar
8 6 15 ar
9 7 12 1
10 7 14 ar
11 7 15 ar
12 8 16 2
13 8 17 1
14 8 18 1
15 9 13 1
16 10 13 1
17 11 13 1
18 12 16 1
19 13 18 1
20 1 19 1
21 2 20 1
22 3 21 1
23 4 22 1
24 9 23 1
25 9 24 1
26 9 25 1
27 10 26 1
28 10 27 1
29 10 28 1
30 11 29 1
31 11 30 1
32 11 31 1
33 12 32 1
34 12 33 1
35 15 34 1

@<COSMOlogic>TOTAL_CHARGE
-1.0
