# Created by COSMOvis on Mon Aug 09 22:24:23 CEST 2021
#
#

#
#

@<TRIPOS>MOLECULE
SAMPL8-2_micro002_c0
27 27
SMALL
USER_CHARGES

@<TRIPOS>ATOM
1 C 2.161600 -2.701900 1.624600 C 0 XO 0.000000
2 S 2.716700 -1.545900 0.341500 S 1 XO 0.000000
3 O 3.741400 -0.626900 0.948500 O 2 XO 0.000000
4 O 3.108900 -2.346200 -0.870000 O 3 XO 0.000000
5 C 1.255100 -0.559700 -0.080100 C 4 XO 0.000000
6 C 0.975200 0.594100 0.657900 C 5 XO 0.000000
7 C -0.155000 1.344400 0.329200 C 6 XO 0.000000
8 C -0.998000 0.962700 -0.727700 C 7 XO 0.000000
9 C -0.686900 -0.202300 -1.450300 C 8 XO 0.000000
10 C 0.436400 -0.969500 -1.136300 C 9 XO 0.000000
11 C -2.206500 1.802600 -1.115600 C 10 XO 0.000000
12 C -2.885600 2.504700 0.027100 C 11 XO 0.000000
13 C -2.994000 3.843200 0.133000 C 12 XO 0.000000
14 O -3.590700 4.525800 1.159400 O 13 XO 0.000000
15 O -2.527000 4.704800 -0.812200 O 14 XO 0.000000
16 H 1.805200 -2.119200 2.481100 H 15 XO 0.000000
17 H 3.036700 -3.306600 1.891500 H 16 XO 0.000000
18 H 1.364200 -3.323300 1.202300 H 17 XO 0.000000
19 H 1.631300 0.906500 1.471300 H 18 XO 0.000000
20 H -0.390300 2.243400 0.902200 H 19 XO 0.000000
21 H -1.332800 -0.514800 -2.273900 H 20 XO 0.000000
22 H 0.672900 -1.868700 -1.706300 H 21 XO 0.000000
23 H -1.878300 2.547500 -1.859400 H 22 XO 0.000000
24 H -2.917400 1.147100 -1.647000 H 23 XO 0.000000
25 H -3.327600 1.898900 0.820800 H 24 XO 0.000000
26 H -3.858600 3.896800 1.856800 H 25 XO 0.000000
27 H -2.576200 5.613200 -0.455000 H 26 XO 0.000000

@<TRIPOS>BOND
1 1 2 1
2 2 3 2
3 2 4 2
4 2 5 1
5 5 6 ar
6 5 10 ar
7 6 7 ar
8 7 8 ar
9 8 9 ar
10 8 11 1
11 9 10 ar
12 11 12 1
13 12 13 2
14 13 14 1
15 13 15 1
16 1 16 1
17 1 17 1
18 1 18 1
19 6 19 1
20 7 20 1
21 9 21 1
22 10 22 1
23 11 23 1
24 11 24 1
25 12 25 1
26 14 26 1
27 15 27 1

@<COSMOlogic>TOTAL_CHARGE
0.0
