# Created by COSMOvis on Mon Aug 09 22:24:22 CEST 2021
#
#

#
#

@<TRIPOS>MOLECULE
SAMPL8-1_micro010_c0
30 31
SMALL
USER_CHARGES

@<TRIPOS>ATOM
1 C -1.909400 2.400000 -1.613800 C 0 XO 0.000000
2 C -0.708000 2.682100 -0.962100 C 1 XO 0.000000
3 C -0.095200 1.678700 -0.195800 C 2 XO 0.000000
4 C -0.671600 0.413000 -0.075300 C 3 XO 0.000000
5 C -1.868400 0.126200 -0.755600 C 4 XO 0.000000
6 C -2.490300 1.133300 -1.516200 C 5 XO 0.000000
7 N -2.457800 -1.138700 -0.564900 N 6 XO 0.000000
8 C -2.815000 -1.949900 -1.533800 C 7 XO 0.000000
9 C -2.516700 -1.741500 -2.944500 C 8 XO 0.000000
10 C -2.905800 -2.626500 -3.886900 C 9 XO 0.000000
11 C -3.672000 -3.856500 -3.557600 C 10 XO 0.000000
12 C -3.931600 -4.055300 -2.113200 C 11 XO 0.000000
13 C -3.529800 -3.184500 -1.154600 C 12 XO 0.000000
14 C -3.847900 -3.505100 0.290300 C 13 XO 0.000000
15 O -4.466900 -4.517900 0.616300 O 14 XO 0.000000
16 O -3.415300 -2.629300 1.196600 O 15 XO 0.000000
17 C 1.192200 2.002600 0.514800 C 16 XO 0.000000
18 F 1.753600 0.925500 1.129300 F 17 XO 0.000000
19 F 1.017900 2.958900 1.482900 F 18 XO 0.000000
20 F 2.137000 2.504000 -0.342000 F 19 XO 0.000000
21 H -2.401600 3.175000 -2.202500 H 20 XO 0.000000
22 H -0.256200 3.671000 -1.045400 H 21 XO 0.000000
23 H -0.201000 -0.363000 0.527700 H 22 XO 0.000000
24 H -3.439900 0.926700 -2.011900 H 23 XO 0.000000
25 H -1.945200 -0.856000 -3.222200 H 24 XO 0.000000
26 H -2.649900 -2.455300 -4.934500 H 25 XO 0.000000
27 H -4.632200 -3.871600 -4.111500 H 26 XO 0.000000
28 H -3.151200 -4.746800 -3.963800 H 27 XO 0.000000
29 H -4.474500 -4.952700 -1.809200 H 28 XO 0.000000
30 H -2.925400 -1.841200 0.651800 H 29 XO 0.000000

@<TRIPOS>BOND
1 1 2 ar
2 1 6 ar
3 2 3 ar
4 3 4 ar
5 3 17 1
6 4 5 ar
7 5 6 ar
8 5 7 1
9 7 8 2
10 8 9 1
11 8 13 1
12 9 10 2
13 10 11 1
14 11 12 1
15 12 13 2
16 13 14 1
17 14 15 2
18 14 16 1
19 17 18 1
20 17 19 1
21 17 20 1
22 1 21 1
23 2 22 1
24 4 23 1
25 6 24 1
26 9 25 1
27 10 26 1
28 11 27 1
29 11 28 1
30 12 29 1
31 16 30 1

@<COSMOlogic>TOTAL_CHARGE
0.0
