# Created by COSMOvis on Mon Aug 09 22:24:22 CEST 2021
#
#

#
#

@<TRIPOS>MOLECULE
SAMPL8-20_micro001_c0
26 28
SMALL
USER_CHARGES

@<TRIPOS>ATOM
1 C 4.850900 -2.890500 0.014700 C 0 XO 0.000000
2 C 4.884900 -1.554800 -0.405200 C 1 XO 0.000000
3 C 3.732200 -0.768700 -0.349100 C 2 XO 0.000000
4 C 2.527300 -1.319200 0.124500 C 3 XO 0.000000
5 C 2.495100 -2.665400 0.536000 C 4 XO 0.000000
6 C 3.654800 -3.443400 0.485100 C 5 XO 0.000000
7 C 1.280500 -0.521100 0.148800 C 6 XO 0.000000
8 C 1.111400 0.729300 0.748700 C 7 XO 0.000000
9 C -0.132400 1.407900 0.722700 C 8 XO 0.000000
10 C -1.194300 0.801300 0.100200 C 9 XO 0.000000
11 C -2.598900 1.161900 -0.145200 C 10 XO 0.000000
12 N -3.332900 2.203400 0.154300 N 11 XO 0.000000
13 N -3.067800 0.057400 -0.834500 N 12 XO 0.000000
14 N -2.127200 -0.963100 -1.079800 N 13 XO 0.000000
15 C -1.038300 -0.494300 -0.510200 C 14 XO 0.000000
16 N 0.198200 -1.100600 -0.460700 N 15 XO 0.000000
17 Cl 2.434900 1.484300 1.638100 Cl 16 XO 0.000000
18 H 5.755400 -3.499300 -0.027000 H 17 XO 0.000000
19 H 5.812700 -1.123400 -0.784200 H 18 XO 0.000000
20 H 3.762100 0.265300 -0.692400 H 19 XO 0.000000
21 H 1.568500 -3.097300 0.918800 H 20 XO 0.000000
22 H 3.622500 -4.481900 0.817900 H 21 XO 0.000000
23 H -0.223400 2.384600 1.201700 H 22 XO 0.000000
24 H -2.763100 2.886800 0.664800 H 23 XO 0.000000
25 H -4.004000 -0.050900 -1.211200 H 24 XO 0.000000
26 H 0.335600 -1.990100 -0.943700 H 25 XO 0.000000

@<TRIPOS>BOND
1 1 2 ar
2 1 6 ar
3 2 3 ar
4 3 4 ar
5 4 5 ar
6 4 7 1
7 5 6 ar
8 7 8 2
9 7 16 1
10 8 9 1
11 8 17 1
12 9 10 2
13 10 11 1
14 10 15 1
15 11 12 2
16 11 13 1
17 13 14 1
18 14 15 2
19 15 16 1
20 1 18 1
21 2 19 1
22 3 20 1
23 5 21 1
24 6 22 1
25 9 23 1
26 12 24 1
27 13 25 1
28 16 26 1

@<COSMOlogic>TOTAL_CHARGE
0.0
