# Created by COSMOvis on Mon Aug 09 22:24:21 CEST 2021
#
#

#
#

@<TRIPOS>MOLECULE
SAMPL8-19_micro011_c0
45 48
SMALL
USER_CHARGES

@<TRIPOS>ATOM
1 C -1.121700 -1.913300 12.942300 C 0 XO 0.000000
2 C -1.995400 -1.588100 11.880100 C 1 XO 0.000000
3 C 0.264400 -1.818500 12.800600 C 2 XO 0.000000
4 C -1.512200 -1.158000 10.640800 C 3 XO 0.000000
5 C 1.387700 2.079300 2.032800 C 4 XO 0.000000
6 C 3.638600 2.788800 2.079200 C 5 XO 0.000000
7 C 2.740400 1.720700 2.145400 C 6 XO 0.000000
8 C 0.771000 -1.389900 11.563300 C 7 XO 0.000000
9 C -0.122300 -1.067000 10.505800 C 8 XO 0.000000
10 C 1.993200 -0.784800 9.885800 C 9 XO 0.000000
11 C 1.934500 4.276800 1.852200 C 10 XO 0.000000
12 C 3.011200 0.585300 4.855300 C 11 XO 0.000000
13 C 3.274500 -0.191400 3.749700 C 12 XO 0.000000
14 C 3.667700 -1.577800 3.972100 C 13 XO 0.000000
15 C 3.460200 -1.139800 6.248500 C 14 XO 0.000000
16 C 0.203100 -0.258100 8.135300 C 15 XO 0.000000
17 C 2.434700 6.611700 1.674800 C 16 XO 0.000000
18 C 3.186700 0.292700 2.318100 C 17 XO 0.000000
19 C 3.176600 -0.480000 9.039100 C 18 XO 0.000000
20 N 0.966300 3.342700 1.884900 N 19 XO 0.000000
21 N 3.254500 4.071400 1.932800 N 20 XO 0.000000
22 N 2.082800 -1.204700 11.146100 N 21 XO 0.000000
23 N 3.743700 -2.015200 5.286400 N 22 XO 0.000000
24 N 0.684900 -0.682100 9.446200 N 23 XO 0.000000
25 N 3.097600 0.136200 6.144800 N 24 XO 0.000000
26 O 3.932100 -2.367300 3.020800 O 25 XO -1.000000
27 O 1.463400 5.536100 1.715800 O 26 XO 0.000000
28 S 3.623600 -1.885700 7.900800 S 27 XO 0.000000
29 H -1.542900 -2.245200 13.892900 H 28 XO 0.000000
30 H -3.072900 -1.674900 12.030200 H 29 XO 0.000000
31 H 0.938000 -2.069300 13.622100 H 30 XO 0.000000
32 H -2.191700 -0.908400 9.824600 H 31 XO 0.000000
33 H 0.607100 1.312200 2.054300 H 32 XO 0.000000
34 H 4.717700 2.615800 2.137900 H 33 XO 0.000000
35 H 2.711600 1.631600 4.747500 H 34 XO 0.000000
36 H -0.345100 -1.077900 7.650900 H 35 XO 0.000000
37 H -0.463000 0.608900 8.243600 H 36 XO 0.000000
38 H 1.054400 0.021900 7.503900 H 37 XO 0.000000
39 H 3.109500 6.492700 0.817300 H 38 XO 0.000000
40 H 3.019800 6.641400 2.603100 H 39 XO 0.000000
41 H 1.838700 7.523500 1.568900 H 40 XO 0.000000
42 H 2.505100 -0.375400 1.764700 H 41 XO 0.000000
43 H 4.171400 0.155600 1.839000 H 42 XO 0.000000
44 H 3.024900 0.380000 8.370700 H 43 XO 0.000000
45 H 4.037800 -0.295100 9.689100 H 44 XO 0.000000

@<TRIPOS>BOND
1 1 2 ar
2 1 3 ar
3 2 4 ar
4 3 8 ar
5 4 9 ar
6 5 7 ar
7 5 20 ar
8 6 7 ar
9 6 21 ar
10 7 18 1
11 8 9 ar
12 8 22 ar
13 9 24 ar
14 10 19 1
15 10 22 ar
16 10 24 ar
17 11 20 ar
18 11 21 ar
19 11 27 1
20 12 13 ar
21 12 25 ar
22 13 14 ar
23 13 18 1
24 14 23 ar
25 14 26 1
26 15 23 ar
27 15 25 ar
28 15 28 1
29 16 24 1
30 17 27 1
31 19 28 1
32 1 29 1
33 2 30 1
34 3 31 1
35 4 32 1
36 5 33 1
37 6 34 1
38 12 35 1
39 16 36 1
40 16 37 1
41 16 38 1
42 17 39 1
43 17 40 1
44 17 41 1
45 18 42 1
46 18 43 1
47 19 44 1
48 19 45 1

@<COSMOlogic>TOTAL_CHARGE
-1.0
