@<TRIPOS>MOLECULE
SAMPL8-21_extra004
 41 42 0 0 0
SMALL
GASTEIGER

@<TRIPOS>ATOM
      1 C          -6.0088   -0.6660    1.7531 C.3     1  LIG1        0.0790
      2 O          -4.8863   -0.0882    2.4202 O.3     1  LIG1       -0.4913
      3 C          -3.6084   -0.3407    1.9460 C.ar    1  LIG1        0.1652
      4 C          -3.3361   -1.1492    0.8314 C.ar    1  LIG1       -0.0126
      5 C          -2.0236   -1.3579    0.4052 C.ar    1  LIG1       -0.0358
      6 C          -0.9709   -0.7665    1.1050 C.ar    1  LIG1       -0.0126
      7 C          -1.2103    0.0478    2.2229 C.ar    1  LIG1        0.1652
      8 C          -2.5387    0.2540    2.6334 C.ar    1  LIG1        0.2010
      9 O          -2.8163    1.0468    3.7254 O.3     1  LIG1       -0.5009
     10 O          -0.2000    0.6616    2.9472 O.3     1  LIG1       -0.4913
     11 C           1.1599    0.4771    2.5540 C.3     1  LIG1        0.0790
     12 C          -1.7312   -2.2403   -0.8010 C.3     1  LIG1        0.0056
     13 C          -1.0457   -1.4871   -1.9452 C.2     1  LIG1        0.0694
     14 C          -1.6643   -0.4541   -2.6626 C.2     1  LIG1        0.2596
     15 N          -2.8769   -0.0100   -2.3866 N.pl3   1  LIG1       -0.2514
     16 N          -1.0564    0.1529   -3.6863 N.pl3   1  LIG1       -0.2000
     17 C           0.2273   -0.1396   -4.1326 C.3     1  LIG1        0.2980
     18 N           0.7818    0.4373   -5.0970 N.3     1  LIG1       -0.1903
     19 N           0.8400   -1.1556   -3.3849 N.3     1  LIG1       -0.2211
     20 C           0.2191   -1.8167   -2.3198 C.3     1  LIG1        0.2018
     21 O           0.9306   -2.8097   -1.7079 O.3     1  LIG1       -0.3537
     22 C           2.3554   -2.8589   -1.8432 C.3     1  LIG1        0.0392
     23 H           0.1821    1.1414   -5.5110 H       1  LIG1        0.1467
     24 H          -5.9729   -1.7565    1.7733 H       1  LIG1        0.0660
     25 H          -6.9265   -0.3615    2.2561 H       1  LIG1        0.0660
     26 H          -6.0789   -0.3311    0.7169 H       1  LIG1        0.0660
     27 H          -4.1396   -1.6267    0.2905 H       1  LIG1        0.0658
     28 H           0.0357   -0.9505    0.7599 H       1  LIG1        0.0658
     29 H          -3.7747    1.0759    3.8597 H       1  LIG1        0.2924
     30 H           1.8118    1.0287    3.2315 H       1  LIG1        0.0660
     31 H           1.4550   -0.5724    2.6011 H       1  LIG1        0.0660
     32 H           1.3435    0.8540    1.5465 H       1  LIG1        0.0660
     33 H          -1.1382   -3.0903   -0.4585 H       1  LIG1        0.0362
     34 H          -2.6529   -2.6779   -1.1886 H       1  LIG1        0.0362
     35 H          -3.3601   -0.3737   -1.5808 H       1  LIG1        0.2881
     36 H          -3.3149    0.7211   -2.9252 H       1  LIG1        0.2881
     37 H          -1.5871    0.8728   -4.1453 H       1  LIG1        0.2946
     38 H           1.7586   -1.4060   -3.7033 H       1  LIG1        0.1307
     39 H           2.7512   -3.6480   -1.2040 H       1  LIG1        0.0524
     40 H           2.6656   -3.0916   -2.8629 H       1  LIG1        0.0524
     41 H           2.8287   -1.9260   -1.5313 H       1  LIG1        0.0524
@<TRIPOS>BOND
     1    23    18    1
     2    18    17    1
     3    37    16    1
     4    17    16    1
     5    17    19    1
     6    38    19    1
     7    16    14    1
     8    19    20    1
     9    36    15    1
    10    40    22    1
    11    14    15    1
    12    14    13    2
    13    15    35    1
    14    20    13    1
    15    20    21    1
    16    13    12    1
    17    22    21    1
    18    22    41    1
    19    22    39    1
    20    34    12    1
    21    12    33    1
    22    12     5    1
    23    27     4    1
    24     5     4   ar
    25     5     6   ar
    26    26     1    1
    27    28     6    1
    28     4     3   ar
    29     6     7   ar
    30    32    11    1
    31     1    24    1
    32     1    25    1
    33     1     2    1
    34     3     2    1
    35     3     8   ar
    36     7     8   ar
    37     7    10    1
    38    11    31    1
    39    11    10    1
    40    11    30    1
    41     8     9    1
    42     9    29    1
