@<TRIPOS>MOLECULE
SAMPL8-12_extra002
 42 44 0 0 0
SMALL
GASTEIGER

@<TRIPOS>ATOM
      1 C           6.0705    1.4778    0.9780 C.3     1  LIG1       -0.0397
      2 C           4.7200    0.8964    0.6033 C.ar    1  LIG1       -0.0504
      3 C           3.6421    1.0181    1.4815 C.ar    1  LIG1       -0.0586
      4 C           2.4062    0.4732    1.1434 C.ar    1  LIG1       -0.0580
      5 C           2.2459   -0.1921   -0.0748 C.ar    1  LIG1       -0.0431
      6 C           3.3296   -0.3247   -0.9470 C.ar    1  LIG1       -0.0580
      7 C           4.5654    0.2206   -0.6080 C.ar    1  LIG1       -0.0586
      8 C           0.8913   -0.7970   -0.4345 C.3     1  LIG1        0.0015
      9 C          -0.2017    0.2121   -0.8216 C.2     1  LIG1        0.0271
     10 C           0.1871    1.4062   -1.4558 C.2     1  LIG1        0.0597
     11 N          -0.7215    2.3752   -1.6557 N.pl3   1  LIG1       -0.2129
     12 C          -1.9813    2.2245   -1.2519 C.cat   1  LIG1        0.3689
     13 N          -2.4420    1.1135   -0.6545 N.2     1  LIG1       -0.0831
     14 C          -1.5747    0.0735   -0.4731 C.3     1  LIG1        0.2611
     15 N          -2.1503   -1.0789    0.0939 N.3     1  LIG1       -0.2528
     16 C          -1.8167   -2.4438   -0.3818 C.3     1  LIG1        0.0263
     17 C          -2.1178   -3.5431    0.6609 C.3     1  LIG1        0.0606
     18 O          -3.4989   -3.5012    1.0048 O.3     1  LIG1       -0.3772
     19 C          -3.8639   -2.2427    1.5617 C.3     1  LIG1        0.0606
     20 C          -3.5632   -1.1117    0.5518 C.3     1  LIG1        0.0263
     21 N          -2.9273    3.2242   -1.4248 N.pl3   1  LIG1       -0.2514
     22 H           6.2139    1.4770    2.0592 H       1  LIG1        0.0278
     23 H           6.8838    0.8842    0.5586 H       1  LIG1        0.0278
     24 H           6.1641    2.5013    0.6145 H       1  LIG1        0.0278
     25 H           3.7582    1.5340    2.4253 H       1  LIG1        0.0620
     26 H           1.5747    0.5723    1.8283 H       1  LIG1        0.0620
     27 H           3.2212   -0.8465   -1.8885 H       1  LIG1        0.0620
     28 H           5.3999    0.1162   -1.2886 H       1  LIG1        0.0620
     29 H           0.5812   -1.3728    0.4396 H       1  LIG1        0.0361
     30 H           1.0195   -1.5112   -1.2505 H       1  LIG1        0.0361
     31 H           1.1992    1.6380   -1.7671 H       1  LIG1        0.0963
     32 H          -0.4508    3.2416   -2.0937 H       1  LIG1        0.2506
     33 H          -2.3843   -2.6445   -1.2931 H       1  LIG1        0.0450
     34 H          -0.7830   -2.5676   -0.6818 H       1  LIG1        0.0450
     35 H          -1.4877   -3.4285    1.5460 H       1  LIG1        0.0572
     36 H          -1.8859   -4.5250    0.2454 H       1  LIG1        0.0572
     37 H          -3.3447   -2.0696    2.5073 H       1  LIG1        0.0572
     38 H          -4.9290   -2.2554    1.7976 H       1  LIG1        0.0572
     39 H          -3.8052   -0.1738    1.0559 H       1  LIG1        0.0450
     40 H          -4.2361   -1.1735   -0.3061 H       1  LIG1        0.0450
     41 H          -3.8693    3.0655   -1.1041 H       1  LIG1        0.2412
     42 H          -2.6978    4.1025   -1.8622 H       1  LIG1        0.2412
@<TRIPOS>BOND
     1    32    11    1
     2    27     6    1
     3    42    21    1
     4    31    10    1
     5    11    10    1
     6    11    12    1
     7    10     9    2
     8    21    12    1
     9    21    41    1
    10    33    16    1
    11    28     7    1
    12    12    13    2
    13    30     8    1
    14     6     7   ar
    15     6     5   ar
    16     9    14    1
    17     9     8    1
    18    34    16    1
    19    13    14    1
    20     7     2   ar
    21    14    15    1
    22     8     5    1
    23     8    29    1
    24    16    15    1
    25    16    17    1
    26    40    20    1
    27     5     4   ar
    28    15    20    1
    29    36    17    1
    30    20    39    1
    31    20    19    1
    32    23     1    1
    33     2     1    1
    34     2     3   ar
    35    24     1    1
    36    17    18    1
    37    17    35    1
    38     1    22    1
    39    18    19    1
    40     4     3   ar
    41     4    26    1
    42     3    25    1
    43    19    38    1
    44    19    37    1
