@<TRIPOS>MOLECULE
SAMPL8-21_extra009
 41 42 0 0 0
SMALL
GASTEIGER

@<TRIPOS>ATOM
      1 C          -3.7378    1.2383    1.9958 C.3     1  LIG1        0.0790
      2 O          -3.9564    0.9765    0.6097 O.3     1  LIG1       -0.4913
      3 C          -3.0697    0.1652   -0.0813 C.ar    1  LIG1        0.1652
      4 C          -1.9429   -0.4250    0.5120 C.ar    1  LIG1       -0.0126
      5 C          -1.0830   -1.2395   -0.2262 C.ar    1  LIG1       -0.0358
      6 C          -1.3384   -1.4605   -1.5802 C.ar    1  LIG1       -0.0126
      7 C          -2.4558   -0.8831   -2.2033 C.ar    1  LIG1        0.1652
      8 C          -3.3159   -0.0740   -1.4444 C.ar    1  LIG1        0.2010
      9 O          -4.4107    0.4870   -2.0643 O.3     1  LIG1       -0.5009
     10 O          -2.7697   -1.0620   -3.5417 O.3     1  LIG1       -0.4913
     11 C          -1.9233   -1.8712   -4.3587 C.3     1  LIG1        0.0790
     12 C           0.1370   -1.8607    0.4449 C.3     1  LIG1        0.0077
     13 C          -0.2125   -2.8233    1.5890 C.2     1  LIG1        0.0962
     14 C          -0.7752   -4.1072    1.4103 C.2     1  LIG1        0.3216
     15 N          -1.1041   -4.5740    0.2462 N.pl3   1  LIG1       -0.2463
     16 N          -1.0135   -4.9571    2.4266 N.2     1  LIG1        0.0209
     17 C          -0.7661   -4.6144    3.6295 C.cat   1  LIG1        0.4109
     18 N          -1.0316   -5.5508    4.6235 N.pl3   1  LIG1       -0.2436
     19 N          -0.2409   -3.3435    3.9595 N.pl3   1  LIG1       -0.1925
     20 C           0.0363   -2.4711    2.8886 C.3     1  LIG1        0.2783
     21 O           0.5965   -1.2736    3.2236 O.3     1  LIG1       -0.3385
     22 C           0.2350   -0.6613    4.4664 C.3     1  LIG1        0.0409
     23 H          -4.5287    1.8874    2.3717 H       1  LIG1        0.0660
     24 H          -3.7594    0.3220    2.5881 H       1  LIG1        0.0660
     25 H          -2.7888    1.7498    2.1651 H       1  LIG1        0.0660
     26 H          -1.7186   -0.2614    1.5556 H       1  LIG1        0.0658
     27 H          -0.6562   -2.0804   -2.1427 H       1  LIG1        0.0658
     28 H          -4.4192    0.2190   -2.9946 H       1  LIG1        0.2924
     29 H          -1.8783   -2.9002   -3.9984 H       1  LIG1        0.0660
     30 H          -2.3179   -1.8994   -5.3744 H       1  LIG1        0.0660
     31 H          -0.9107   -1.4684   -4.4140 H       1  LIG1        0.0660
     32 H           0.7672   -1.0423    0.7983 H       1  LIG1        0.0363
     33 H           0.7576   -2.3834   -0.2861 H       1  LIG1        0.0363
     34 H          -1.5004   -5.5008    0.1849 H       1  LIG1        0.2884
     35 H          -0.9830   -4.0361   -0.5993 H       1  LIG1        0.2884
     36 H          -1.5136   -6.3585    4.2692 H       1  LIG1        0.2419
     37 H          -1.5502   -5.1981    5.4095 H       1  LIG1        0.2419
     38 H           0.3338   -3.3402    4.7846 H       1  LIG1        0.2486
     39 H           0.6297   -1.2036    5.3265 H       1  LIG1        0.0525
     40 H           0.6501    0.3457    4.5077 H       1  LIG1        0.0525
     41 H          -0.8472   -0.5699    4.5751 H       1  LIG1        0.0525
@<TRIPOS>BOND
     1    30    11    1
     2    31    11    1
     3    11    29    1
     4    11    10    1
     5    10     7    1
     6    28     9    1
     7     7     6   ar
     8     7     8   ar
     9    27     6    1
    10     9     8    1
    11     6     5   ar
    12     8     3   ar
    13    35    15    1
    14    33    12    1
    15     5    12    1
    16     5     4   ar
    17     3     4   ar
    18     3     2    1
    19    34    15    1
    20    15    14    1
    21    12    32    1
    22    12    13    1
    23     4    26    1
    24     2     1    1
    25    14    13    2
    26    14    16    1
    27    13    20    1
    28     1    25    1
    29     1    23    1
    30     1    24    1
    31    16    17    2
    32    20    21    1
    33    20    19    1
    34    21    22    1
    35    17    19    1
    36    17    18    1
    37    19    38    1
    38    36    18    1
    39    22    40    1
    40    22    41    1
    41    22    39    1
    42    18    37    1
