@<TRIPOS>MOLECULE
SAMPL8-22_extra004
 27 28 0 0 0
SMALL
GASTEIGER

@<TRIPOS>ATOM
      1 C          -3.9382   -1.3726    0.5624 C.3     1  LIG1        0.0790
      2 O          -3.4126   -0.0597    0.3662 O.2     1  LIG1       -0.4914
      3 C          -2.0505    0.1186    0.1793 C.2     1  LIG1        0.1619
      4 C          -1.1286   -0.9435    0.1701 C.2     1  LIG1       -0.0030
      5 C           0.2404   -0.7073   -0.0232 C.2     1  LIG1        0.0750
      6 C           0.6881    0.6213   -0.2100 C.3     1  LIG1        0.1536
      7 C          -0.2231    1.6738   -0.2014 C.2     1  LIG1       -0.0037
      8 C          -1.5931    1.4369   -0.0082 C.2     1  LIG1        0.1603
      9 O          -2.5442    2.4456    0.0095 O.2     1  LIG1       -0.4917
     10 C          -2.1436    3.8037   -0.1763 C.3     1  LIG1        0.0789
     11 N           2.0479    0.9591   -0.4114 N.2     1  LIG1       -0.2184
     12 C           2.9085    0.0119   -0.4239 C.2     1  LIG1        0.2804
     13 N           2.5463   -1.3438   -0.2452 N.pl3   1  LIG1       -0.1796
     14 C           1.2937   -1.7461   -0.0512 C.2     1  LIG1        0.2660
     15 N           1.0654   -3.0276    0.1024 N.pl3   1  LIG1       -0.2509
     16 CL          4.6517    0.3721   -0.6744 Cl      1  LIG1       -0.0191
     17 H          -3.5300   -1.8427    1.4586 H       1  LIG1        0.0660
     18 H          -5.0191   -1.3153    0.6912 H       1  LIG1        0.0660
     19 H          -3.7484   -2.0177   -0.2969 H       1  LIG1        0.0660
     20 H          -1.4704   -1.9575    0.3130 H       1  LIG1        0.0661
     21 H           0.1516    2.6745   -0.3469 H       1  LIG1        0.0638
     22 H          -1.4586    4.1361    0.6053 H       1  LIG1        0.0660
     23 H          -1.6762    3.9601   -1.1499 H       1  LIG1        0.0660
     24 H          -3.0203    4.4499   -0.1324 H       1  LIG1        0.0660
     25 H           3.2256   -2.0827   -0.2560 H       1  LIG1        0.3006
     26 H           0.1260   -3.3506    0.2494 H       1  LIG1        0.2882
     27 H           1.8149   -3.6961    0.0747 H       1  LIG1        0.2882
@<TRIPOS>BOND
     1    23    10    1
     2    16    12    1
     3    12    11    2
     4    12    13    1
     5    11     6    1
     6    21     7    1
     7    19     1    1
     8    25    13    1
     9    13    14    1
    10     6     7    1
    11     6     5    1
    12     7     8    2
    13    10    24    1
    14    10     9    1
    15    10    22    1
    16    14     5    2
    17    14    15    1
    18     5     4    1
    19     8     9    1
    20     8     3    1
    21    27    15    1
    22    15    26    1
    23     4     3    2
    24     4    20    1
    25     3     2    1
    26     2     1    1
    27     1    18    1
    28     1    17    1
