@<TRIPOS>MOLECULE
SAMPL8-21_extra002
 41 42 0 0 0
SMALL
GASTEIGER

@<TRIPOS>ATOM
      1 C           5.2630    1.6923    0.8894 C.3     1  LIG1        0.0790
      2 O           3.8937    2.0699    0.7425 O.3     1  LIG1       -0.4913
      3 C           2.9177    1.0861    0.7091 C.ar    1  LIG1        0.1652
      4 C           3.1935   -0.2869    0.7904 C.ar    1  LIG1       -0.0126
      5 C           2.1630   -1.2270    0.7641 C.ar    1  LIG1       -0.0358
      6 C           0.8424   -0.7956    0.6326 C.ar    1  LIG1       -0.0126
      7 C           0.5330    0.5714    0.5460 C.ar    1  LIG1        0.1652
      8 C           1.5838    1.5045    0.5865 C.ar    1  LIG1        0.2010
      9 O           1.3218    2.8545    0.5058 O.3     1  LIG1       -0.5009
     10 O          -0.7610    1.0532    0.4221 O.3     1  LIG1       -0.4913
     11 C          -1.8541    0.1360    0.3865 C.3     1  LIG1        0.0790
     12 C           2.4816   -2.7144    0.8400 C.3     1  LIG1        0.0077
     13 C           2.3753   -3.2726    2.2631 C.2     1  LIG1        0.0959
     14 C           1.2433   -3.9571    2.7238 C.2     1  LIG1        0.2683
     15 N           0.1189   -4.1760    1.9301 N.pl3   1  LIG1       -0.2510
     16 N           1.2222   -4.4263    3.9720 N.pl3   1  LIG1       -0.1493
     17 C           2.2614   -4.2626    4.7827 C.cat   1  LIG1        0.4028
     18 N           2.2563   -4.7416    6.0758 N.pl3   1  LIG1       -0.2441
     19 N           3.3934   -3.6341    4.4323 N.2     1  LIG1       -0.0609
     20 C           3.4441   -3.1422    3.1626 C.3     1  LIG1        0.3247
     21 O           4.5951   -2.4943    2.7546 O.3     1  LIG1       -0.3345
     22 C           5.6774   -2.3310    3.6747 C.3     1  LIG1        0.0411
     23 H           5.6034    1.0771    0.0550 H       1  LIG1        0.0660
     24 H           5.8864    2.5863    0.9100 H       1  LIG1        0.0660
     25 H           5.4355    1.1535    1.8226 H       1  LIG1        0.0660
     26 H           4.2097   -0.6403    0.8815 H       1  LIG1        0.0658
     27 H           0.0607   -1.5391    0.6057 H       1  LIG1        0.0658
     28 H           2.1574    3.3418    0.5478 H       1  LIG1        0.2924
     29 H          -1.9167   -0.4533    1.3028 H       1  LIG1        0.0660
     30 H          -2.7886    0.6889    0.2908 H       1  LIG1        0.0660
     31 H          -1.7864   -0.5393   -0.4679 H       1  LIG1        0.0660
     32 H           3.4863   -2.8932    0.4499 H       1  LIG1        0.0363
     33 H           1.8342   -3.2591    0.1508 H       1  LIG1        0.0363
     34 H           0.1046   -3.8556    0.9766 H       1  LIG1        0.2882
     35 H          -0.6819   -4.6738    2.2858 H       1  LIG1        0.2882
     36 H           0.4114   -4.9129    4.3045 H       1  LIG1        0.3039
     37 H           3.0716   -4.5902    6.6455 H       1  LIG1        0.2420
     38 H           1.4636   -5.2322    6.4543 H       1  LIG1        0.2420
     39 H           6.4935   -1.7946    3.1911 H       1  LIG1        0.0525
     40 H           5.3788   -1.7522    4.5502 H       1  LIG1        0.0525
     41 H           6.0706   -3.2919    4.0105 H       1  LIG1        0.0525
@<TRIPOS>BOND
     1    31    11    1
     2    23     1    1
     3    33    12    1
     4    30    11    1
     5    11    10    1
     6    11    29    1
     7    10     7    1
     8    32    12    1
     9     9    28    1
    10     9     8    1
    11     7     8   ar
    12     7     6   ar
    13     8     3   ar
    14    27     6    1
    15     6     5   ar
    16     3     2    1
    17     3     4   ar
    18     2     1    1
    19     5     4   ar
    20     5    12    1
    21     4    26    1
    22    12    13    1
    23     1    24    1
    24     1    25    1
    25    34    15    1
    26    15    35    1
    27    15    14    1
    28    13    14    2
    29    13    20    1
    30    14    16    1
    31    21    20    1
    32    21    22    1
    33    20    19    1
    34    39    22    1
    35    22    41    1
    36    22    40    1
    37    16    36    1
    38    16    17    1
    39    19    17    2
    40    17    18    1
    41    18    38    1
    42    18    37    1
