@<TRIPOS>MOLECULE
SAMPL8-21_extra007
 42 43 0 0 0
SMALL
GASTEIGER

@<TRIPOS>ATOM
      1 C          -2.8068    2.1189    3.7801 C.3     1  LIG1        0.0790
      2 O          -3.2545    0.9523    3.0899 O.3     1  LIG1       -0.4913
      3 C          -2.6882    0.6164    1.8698 C.ar    1  LIG1        0.1652
      4 C          -1.6455    1.3468    1.2738 C.ar    1  LIG1       -0.0126
      5 C          -1.1169    0.9686    0.0379 C.ar    1  LIG1       -0.0355
      6 C          -1.6355   -0.1514   -0.6146 C.ar    1  LIG1       -0.0126
      7 C          -2.6722   -0.9051   -0.0433 C.ar    1  LIG1        0.1652
      8 C          -3.1902   -0.5134    1.2006 C.ar    1  LIG1        0.2010
      9 O          -4.2086   -1.2570    1.7553 O.3     1  LIG1       -0.5009
     10 O          -3.2275   -2.0266   -0.6395 O.3     1  LIG1       -0.4913
     11 C          -2.7425   -2.4557   -1.9123 C.3     1  LIG1        0.0790
     12 C          -0.0200    1.8040   -0.6200 C.3     1  LIG1        0.0102
     13 C           1.2056    1.0109   -1.1047 C.2     1  LIG1        0.1003
     14 C           2.0600    0.2658   -0.1921 C.2     1  LIG1        0.2837
     15 N           1.7055    0.1680    1.2246 N.pl3   1  LIG1       -0.3663
     16 N           3.1107   -0.3184   -0.6317 N.2     1  LIG1       -0.0349
     17 C           3.4208   -0.2434   -1.9396 C.3     1  LIG1        0.3531
     18 N           4.5196   -0.8359   -2.3458 N.3     1  LIG1       -0.2637
     19 N           2.6745    0.3963   -2.8511 N.pl3   1  LIG1       -0.2521
     20 C           1.5360    1.0217   -2.4174 C.2     1  LIG1        0.1954
     21 O           0.9068    1.7216   -3.3919 O.2     1  LIG1       -0.4822
     22 C           0.2017    0.9389   -4.3589 C.3     1  LIG1        0.0802
     23 H          -3.3738    2.2340    4.7039 H       1  LIG1        0.0660
     24 H          -1.7528    2.0477    4.0525 H       1  LIG1        0.0660
     25 H          -2.9619    3.0228    3.1887 H       1  LIG1        0.0660
     26 H          -1.2521    2.2295    1.7567 H       1  LIG1        0.0658
     27 H          -1.2243   -0.4221   -1.5754 H       1  LIG1        0.0658
     28 H          -4.4306   -1.9860    1.1587 H       1  LIG1        0.2924
     29 H          -1.6850   -2.7219   -1.8730 H       1  LIG1        0.0660
     30 H          -3.2895   -3.3437   -2.2294 H       1  LIG1        0.0660
     31 H          -2.8891   -1.6926   -2.6784 H       1  LIG1        0.0660
     32 H          -0.4878    2.3431   -1.4471 H       1  LIG1        0.0366
     33 H           0.3179    2.5947    0.0542 H       1  LIG1        0.0366
     34 H           1.7913   -0.7813    1.5265 H       1  LIG1        0.2454
     35 H           2.3245    0.7235    1.7799 H       1  LIG1        0.2454
     36 H           0.7629    0.4697    1.3719 H       1  LIG1        0.2454
     37 H           5.0670   -1.3104   -1.6512 H       1  LIG1        0.1243
     38 H           4.8177   -0.8411   -3.3046 H       1  LIG1        0.1243
     39 H           3.0068    0.4970   -3.7927 H       1  LIG1        0.1548
     40 H           0.8587    0.2948   -4.9449 H       1  LIG1        0.0660
     41 H          -0.5654    0.3163   -3.8954 H       1  LIG1        0.0660
     42 H          -0.3055    1.6001   -5.0613 H       1  LIG1        0.0660
@<TRIPOS>BOND
     1    42    22    1
     2    40    22    1
     3    22    41    1
     4    22    21    1
     5    39    19    1
     6    21    20    1
     7    38    18    1
     8    19    20    1
     9    19    17    1
    10    31    11    1
    11    20    13    2
    12    18    17    1
    13    18    37    1
    14    30    11    1
    15    17    16    1
    16    11    29    1
    17    11    10    1
    18    27     6    1
    19    32    12    1
    20    13    12    1
    21    13    14    1
    22    10     7    1
    23    16    14    2
    24    12     5    1
    25    12    33    1
    26     6     7   ar
    27     6     5   ar
    28    14    15    1
    29     7     8   ar
    30     5     4   ar
    31    28     9    1
    32     8     9    1
    33     8     3   ar
    34    15    36    1
    35    15    34    1
    36    15    35    1
    37     4    26    1
    38     4     3   ar
    39     3     2    1
    40     2     1    1
    41    25     1    1
    42     1    24    1
    43     1    23    1
