@<TRIPOS>MOLECULE
SAMPL8-22_extra001
 28 29 0 0 0
SMALL
GASTEIGER

@<TRIPOS>ATOM
      1 C           3.7952   -2.1049    0.4161 C.3     1  LIG1        0.0790
      2 O           3.4471   -0.7198    0.4057 O.2     1  LIG1       -0.4914
      3 C           2.1295   -0.3358    0.2036 C.2     1  LIG1        0.1618
      4 C           1.0791   -1.2496    0.0026 C.2     1  LIG1       -0.0036
      5 C          -0.2442   -0.8216   -0.1994 C.2     1  LIG1        0.0667
      6 C          -0.4975    0.5679   -0.1959 C.3     1  LIG1        0.1051
      7 C           0.5383    1.4842    0.0031 C.2     1  LIG1       -0.0115
      8 C           1.8564    1.0435    0.2041 C.2     1  LIG1        0.1597
      9 O           2.9271    1.9010    0.4070 O.2     1  LIG1       -0.4917
     10 C           2.7173    3.3136    0.4197 C.3     1  LIG1        0.0789
     11 N          -1.8412    1.0114   -0.4014 N.3     1  LIG1       -0.2423
     12 C          -2.8244    0.1188   -0.5912 C.3     1  LIG1        0.3026
     13 N          -2.5633   -1.2029   -0.5910 N.pl3   1  LIG1       -0.2009
     14 C          -1.3737   -1.7542   -0.4139 C.2     1  LIG1        0.2613
     15 N          -1.2776   -3.0594   -0.4395 N.pl3   1  LIG1       -0.2512
     16 CL         -4.5036    0.7154   -0.8473 Cl      1  LIG1       -0.0471
     17 H           4.8667   -2.2086    0.5868 H       1  LIG1        0.0660
     18 H           3.2890   -2.6465    1.2167 H       1  LIG1        0.0660
     19 H           3.5739   -2.5881   -0.5368 H       1  LIG1        0.0660
     20 H           1.2940   -2.3070    0.0033 H       1  LIG1        0.0661
     21 H           0.3149    2.5409    0.0009 H       1  LIG1        0.0632
     22 H           2.3283    3.6776   -0.5324 H       1  LIG1        0.0660
     23 H           2.0422    3.6194    1.2205 H       1  LIG1        0.0660
     24 H           3.6670    3.8201    0.5916 H       1  LIG1        0.0660
     25 H          -2.0921    1.9875   -0.4109 H       1  LIG1        0.1286
     26 H          -3.3280   -1.8404   -0.7367 H       1  LIG1        0.2944
     27 H          -0.3891   -3.5042   -0.3081 H       1  LIG1        0.2881
     28 H          -2.0862   -3.6333   -0.5898 H       1  LIG1        0.2881
@<TRIPOS>BOND
     1    16    12    1
     2    26    13    1
     3    12    13    1
     4    12    11    1
     5    13    14    1
     6    28    15    1
     7    19     1    1
     8    22    10    1
     9    15    14    1
    10    15    27    1
    11    14     5    2
    12    25    11    1
    13    11     6    1
    14     5     6    1
    15     5     4    1
    16     6     7    1
    17    21     7    1
    18     4    20    1
    19     4     3    2
    20     7     8    2
    21     3     8    1
    22     3     2    1
    23     8     9    1
    24     2     1    1
    25     9    10    1
    26     1    17    1
    27     1    18    1
    28    10    24    1
    29    10    23    1
