@<TRIPOS>MOLECULE
SAMPL8-21_extra008
 41 42 0 0 0
SMALL
GASTEIGER

@<TRIPOS>ATOM
      1 C           1.6354    1.2087   -0.1048 C.3     1  LIG1        0.0790
      2 O           0.7617    0.2167   -0.6449 O.3     1  LIG1       -0.4913
      3 C          -0.6045    0.4510   -0.6649 C.ar    1  LIG1        0.1652
      4 C          -1.2010    1.6268   -0.1839 C.ar    1  LIG1       -0.0126
      5 C          -2.5854    1.7961   -0.2314 C.ar    1  LIG1       -0.0355
      6 C          -3.3837    0.7880   -0.7727 C.ar    1  LIG1       -0.0126
      7 C          -2.8179   -0.4001   -1.2618 C.ar    1  LIG1        0.1652
      8 C          -1.4222   -0.5561   -1.2008 C.ar    1  LIG1        0.2010
      9 O          -0.8277   -1.7067   -1.6701 O.3     1  LIG1       -0.5009
     10 O          -3.5666   -1.4327   -1.8051 O.3     1  LIG1       -0.4913
     11 C          -4.9868   -1.3098   -1.8801 C.3     1  LIG1        0.0790
     12 C          -3.2259    3.0795    0.2871 C.3     1  LIG1        0.0103
     13 C          -4.0941    2.8820    1.5369 C.2     1  LIG1        0.1036
     14 C          -3.5256    2.5238    2.8166 C.2     1  LIG1        0.3163
     15 N          -2.2177    2.2766    2.9783 N.pl3   1  LIG1       -0.2465
     16 N          -4.2341    2.4190    3.8601 N.2     1  LIG1       -0.0315
     17 C          -5.5468    2.6583    3.7590 C.3     1  LIG1        0.3532
     18 N          -6.2595    2.5694    4.8511 N.3     1  LIG1       -0.2637
     19 N          -6.1828    2.9801    2.6232 N.pl3   1  LIG1       -0.2521
     20 C          -5.4296    3.0739    1.4811 C.2     1  LIG1        0.1955
     21 O          -6.1281    3.4964    0.3983 O.2     1  LIG1       -0.4822
     22 C          -7.1531    2.6190   -0.0765 C.3     1  LIG1        0.0802
     23 H           1.4209    1.4065    0.9467 H       1  LIG1        0.0660
     24 H           2.6655    0.8576   -0.1661 H       1  LIG1        0.0660
     25 H           1.5768    2.1448   -0.6624 H       1  LIG1        0.0660
     26 H          -0.5957    2.4219    0.2265 H       1  LIG1        0.0658
     27 H          -4.4508    0.9460   -0.8054 H       1  LIG1        0.0658
     28 H           0.1306   -1.6383   -1.5506 H       1  LIG1        0.2924
     29 H          -5.4057   -2.2104   -2.3293 H       1  LIG1        0.0660
     30 H          -5.4353   -1.2003   -0.8913 H       1  LIG1        0.0660
     31 H          -5.2865   -0.4656   -2.5031 H       1  LIG1        0.0660
     32 H          -3.8073    3.5156   -0.5278 H       1  LIG1        0.0366
     33 H          -2.4584    3.8247    0.5081 H       1  LIG1        0.0366
     34 H          -1.7877    1.8247    2.1908 H       1  LIG1        0.2884
     35 H          -2.0586    1.8781    3.8870 H       1  LIG1        0.2884
     36 H          -5.7674    2.3279    5.6927 H       1  LIG1        0.1243
     37 H          -7.2529    2.7184    4.8672 H       1  LIG1        0.1243
     38 H          -7.1547    3.2327    2.6491 H       1  LIG1        0.1548
     39 H          -7.9819    2.5237    0.6262 H       1  LIG1        0.0660
     40 H          -7.5653    3.0137   -1.0053 H       1  LIG1        0.0660
     41 H          -6.7674    1.6212   -0.2924 H       1  LIG1        0.0660
@<TRIPOS>BOND
     1    31    11    1
     2    29    11    1
     3    11    10    1
     4    11    30    1
     5    10     7    1
     6     9    28    1
     7     9     8    1
     8     7     8   ar
     9     7     6   ar
    10     8     3   ar
    11    40    22    1
    12    27     6    1
    13     6     5   ar
    14     3     2    1
    15     3     4   ar
    16    25     1    1
    17     2     1    1
    18    32    12    1
    19    41    22    1
    20     5     4   ar
    21     5    12    1
    22     4    26    1
    23    24     1    1
    24     1    23    1
    25    22    21    1
    26    22    39    1
    27    12    33    1
    28    12    13    1
    29    21    20    1
    30    20    13    2
    31    20    19    1
    32    13    14    1
    33    34    15    1
    34    19    38    1
    35    19    17    1
    36    14    15    1
    37    14    16    2
    38    15    35    1
    39    17    16    1
    40    17    18    1
    41    18    37    1
    42    18    36    1
