@<TRIPOS>MOLECULE
SAMPL8-14_extra003
 45 46 0 0 0
SMALL
GASTEIGER

@<TRIPOS>ATOM
      1 C          -2.5489    3.1752   -1.7542 C.3     1  LIG1       -0.0362
      2 C          -2.0220    2.0281   -0.8944 C.ar    1  LIG1       -0.0085
      3 C          -0.7765    2.1707   -0.2841 C.ar    1  LIG1       -0.0519
      4 C          -0.2586    1.1484    0.5063 C.ar    1  LIG1       -0.0425
      5 C          -0.9974   -0.0206    0.6929 C.ar    1  LIG1       -0.0511
      6 C          -2.2580   -0.2076    0.0947 C.ar    1  LIG1       -0.0001
      7 C          -2.7595    0.8466   -0.7076 C.ar    1  LIG1        0.1234
      8 O          -3.9773    0.7609   -1.3317 O.3     1  LIG1       -0.5062
      9 C          -3.0527   -1.5335    0.3220 C.3     1  LIG1       -0.0092
     10 C          -2.3103   -2.5483    1.2349 C.3     1  LIG1       -0.0559
     11 C          -4.4063   -1.2465    1.0165 C.3     1  LIG1       -0.0559
     12 C          -3.2902   -2.2647   -1.0220 C.3     1  LIG1       -0.0559
     13 C           1.1008    1.3063    1.1811 C.3     1  LIG1       -0.0019
     14 C           2.1868    0.3949    0.5935 C.2     1  LIG1       -0.0143
     15 C           2.6174    0.5501   -0.7375 C.2     1  LIG1       -0.0054
     16 N           3.5817   -0.2721   -1.1918 N.pl3   1  LIG1       -0.3162
     17 C           4.1707   -1.2404   -0.4610 C.3     1  LIG1        0.1881
     18 N           5.1185   -2.0180   -0.9802 N.3     1  LIG1       -0.2937
     19 N           3.7692   -1.3950    0.8110 N.3     1  LIG1       -0.2554
     20 C           2.7871   -0.5864    1.3408 C.3     1  LIG1        0.1306
     21 N           2.5132   -0.8962    2.6439 N.3     1  LIG1       -0.3065
     22 H          -2.7198    2.8428   -2.7790 H       1  LIG1        0.0279
     23 H          -3.4966    3.5475   -1.3626 H       1  LIG1        0.0279
     24 H          -1.8567    4.0177   -1.7932 H       1  LIG1        0.0279
     25 H          -0.2084    3.0810   -0.4256 H       1  LIG1        0.0624
     26 H          -0.5572   -0.7833    1.3171 H       1  LIG1        0.0624
     27 H          -4.1493    1.5703   -1.8273 H       1  LIG1        0.2922
     28 H          -2.1278   -2.1437    2.2316 H       1  LIG1        0.0238
     29 H          -2.8872   -3.4639    1.3753 H       1  LIG1        0.0238
     30 H          -1.3504   -2.8508    0.8135 H       1  LIG1        0.0238
     31 H          -5.0816   -0.6551    0.4004 H       1  LIG1        0.0238
     32 H          -4.9413   -2.1673    1.2534 H       1  LIG1        0.0238
     33 H          -4.2657   -0.7052    1.9531 H       1  LIG1        0.0238
     34 H          -2.3509   -2.4515   -1.5442 H       1  LIG1        0.0238
     35 H          -3.7754   -3.2308   -0.8753 H       1  LIG1        0.0238
     36 H          -3.9313   -1.7053   -1.7012 H       1  LIG1        0.0238
     37 H           1.4397    2.3427    1.1100 H       1  LIG1        0.0360
     38 H           0.9655    1.1441    2.2513 H       1  LIG1        0.0360
     39 H           2.2121    1.2935   -1.4118 H       1  LIG1        0.0779
     40 H           3.8941   -0.1541   -2.1454 H       1  LIG1        0.1487
     41 H           5.8011   -2.4835   -0.3988 H       1  LIG1        0.1216
     42 H           5.1943   -2.1774   -1.9748 H       1  LIG1        0.1216
     43 H           4.1742   -2.1173    1.3778 H       1  LIG1        0.1275
     44 H           1.8176   -0.3880    3.1671 H       1  LIG1        0.1203
     45 H           2.9965   -1.6153    3.1614 H       1  LIG1        0.1203
@<TRIPOS>BOND
     1    22     1    1
     2    40    16    1
     3    42    18    1
     4    27     8    1
     5    24     1    1
     6     1    23    1
     7     1     2    1
     8    36    12    1
     9    34    12    1
    10    39    15    1
    11     8     7    1
    12    16    15    1
    13    16    17    1
    14    12    35    1
    15    12     9    1
    16    18    17    1
    17    18    41    1
    18     2     7   ar
    19     2     3   ar
    20    15    14    2
    21     7     6   ar
    22    17    19    1
    23    25     3    1
    24     3     4   ar
    25     6     9    1
    26     6     5   ar
    27     9    11    1
    28     9    10    1
    29    31    11    1
    30     4     5   ar
    31     4    13    1
    32    14    13    1
    33    14    20    1
    34     5    26    1
    35    19    20    1
    36    19    43    1
    37    30    10    1
    38    11    32    1
    39    11    33    1
    40    37    13    1
    41    13    38    1
    42    10    29    1
    43    10    28    1
    44    20    21    1
    45    21    45    1
    46    21    44    1
