@<TRIPOS>MOLECULE
SAMPL8-21_extra010
 42 43 0 0 0
SMALL
GASTEIGER

@<TRIPOS>ATOM
      1 C          -2.9316   -2.8898    1.7381 C.3     1  LIG1        0.0790
      2 O          -3.6877   -1.8258    1.1604 O.3     1  LIG1       -0.4913
      3 C          -3.0339   -0.8209    0.4640 C.ar    1  LIG1        0.1652
      4 C          -1.6414   -0.7850    0.2869 C.ar    1  LIG1       -0.0126
      5 C          -1.0320    0.2485   -0.4266 C.ar    1  LIG1       -0.0358
      6 C          -1.8183    1.2684   -0.9651 C.ar    1  LIG1       -0.0126
      7 C          -3.2129    1.2624   -0.8028 C.ar    1  LIG1        0.1652
      8 C          -3.8102    0.2122   -0.0887 C.ar    1  LIG1        0.2010
      9 O          -5.1792    0.2132    0.0641 O.3     1  LIG1       -0.5009
     10 O          -4.0517    2.2430   -1.3095 O.3     1  LIG1       -0.4913
     11 C          -3.4921    3.3404   -2.0317 C.3     1  LIG1        0.0790
     12 C           0.4832    0.2733   -0.5909 C.3     1  LIG1        0.0056
     13 C           1.0454   -0.9468   -1.3257 C.2     1  LIG1        0.0694
     14 C           0.6299   -1.3541   -2.6024 C.2     1  LIG1        0.2596
     15 N          -0.3388   -0.7545   -3.2839 N.pl3   1  LIG1       -0.2514
     16 N           1.2304   -2.3994   -3.1908 N.pl3   1  LIG1       -0.2012
     17 C           2.2100   -3.1125   -2.6372 C.3     1  LIG1        0.2815
     18 N           2.7752   -4.1326   -3.2714 N.3     1  LIG1       -0.2721
     19 N           2.5918   -2.7486   -1.4154 N.3     1  LIG1       -0.2223
     20 C           2.0142   -1.6974   -0.7548 C.3     1  LIG1        0.2018
     21 O           2.6032   -1.4476    0.4397 O.3     1  LIG1       -0.3537
     22 C           2.2777   -2.3594    1.4929 C.3     1  LIG1        0.0392
     23 H          -3.6058   -3.5823    2.2422 H       1  LIG1        0.0660
     24 H          -2.2241   -2.5239    2.4838 H       1  LIG1        0.0660
     25 H          -2.3891   -3.4576    0.9804 H       1  LIG1        0.0660
     26 H          -1.0139   -1.5595    0.7010 H       1  LIG1        0.0658
     27 H          -1.3332    2.0707   -1.5016 H       1  LIG1        0.0658
     28 H          -5.5455    0.9948   -0.3738 H       1  LIG1        0.2924
     29 H          -2.8049    3.9218   -1.4149 H       1  LIG1        0.0660
     30 H          -2.9698    3.0085   -2.9304 H       1  LIG1        0.0660
     31 H          -4.2903    4.0115   -2.3493 H       1  LIG1        0.0660
     32 H           0.9287    0.3884    0.3991 H       1  LIG1        0.0362
     33 H           0.7896    1.1632   -1.1437 H       1  LIG1        0.0362
     34 H          -0.8587   -0.0091   -2.8470 H       1  LIG1        0.2881
     35 H          -0.6114   -1.0402   -4.2115 H       1  LIG1        0.2881
     36 H           0.9215   -2.6652   -4.1116 H       1  LIG1        0.2945
     37 H           3.5144   -4.6768   -2.8528 H       1  LIG1        0.1237
     38 H           2.4852   -4.4036   -4.1990 H       1  LIG1        0.1237
     39 H           3.3735   -3.2257   -0.9973 H       1  LIG1        0.1307
     40 H           2.6134   -3.3778    1.2927 H       1  LIG1        0.0524
     41 H           2.7646   -2.0391    2.4140 H       1  LIG1        0.0524
     42 H           1.2049   -2.3850    1.6910 H       1  LIG1        0.0524
@<TRIPOS>BOND
     1    35    15    1
     2    38    18    1
     3    36    16    1
     4    15    34    1
     5    15    14    1
     6    18    37    1
     7    18    17    1
     8    16    17    1
     9    16    14    1
    10    30    11    1
    11    17    19    1
    12    14    13    2
    13    31    11    1
    14    11    29    1
    15    11    10    1
    16    27     6    1
    17    19    39    1
    18    19    20    1
    19    13    20    1
    20    13    12    1
    21    10     7    1
    22    33    12    1
    23     6     7   ar
    24     6     5   ar
    25     7     8   ar
    26    20    21    1
    27    12     5    1
    28    12    32    1
    29     5     4   ar
    30    28     9    1
    31     8     9    1
    32     8     3   ar
    33     4     3   ar
    34     4    26    1
    35    21    22    1
    36     3     2    1
    37    25     1    1
    38     2     1    1
    39    40    22    1
    40    22    42    1
    41    22    41    1
    42     1    23    1
    43     1    24    1
