@<TRIPOS>MOLECULE
SAMPL8-14_extra006
 44 45 0 0 0
SMALL
GASTEIGER

@<TRIPOS>ATOM
      1 C           2.7139   -3.8101   -0.2541 C.3     1  LIG1       -0.0362
      2 C           2.0918   -2.4284   -0.4416 C.ar    1  LIG1       -0.0085
      3 C           0.8701   -2.3324   -1.1066 C.ar    1  LIG1       -0.0519
      4 C           0.2695   -1.0916   -1.3024 C.ar    1  LIG1       -0.0423
      5 C           0.8932    0.0585   -0.8162 C.ar    1  LIG1       -0.0511
      6 C           2.1274    0.0085   -0.1405 C.ar    1  LIG1       -0.0001
      7 C           2.7185   -1.2662    0.0387 C.ar    1  LIG1        0.1234
      8 O           3.9178   -1.4222    0.6846 O.3     1  LIG1       -0.5062
      9 C           2.7977    1.3205    0.3796 C.3     1  LIG1       -0.0092
     10 C           1.9729    2.5998    0.0668 C.3     1  LIG1       -0.0559
     11 C           2.9544    1.2802    1.9193 C.3     1  LIG1       -0.0559
     12 C           4.1778    1.5306   -0.2900 C.3     1  LIG1       -0.0559
     13 C          -1.0680   -0.9905   -2.0264 C.3     1  LIG1        0.0027
     14 C          -1.0334   -0.0966   -3.2671 C.2     1  LIG1        0.0374
     15 C          -1.9252    0.9239   -3.3734 C.3     1  LIG1        0.0615
     16 N          -1.9351    1.7556   -4.4969 N.3     1  LIG1       -0.2485
     17 C          -1.0536    1.5970   -5.5857 C.3     1  LIG1        0.2959
     18 N          -1.0493    2.3251   -6.6085 N.3     1  LIG1       -0.1904
     19 N          -0.1728    0.5327   -5.4088 N.pl3   1  LIG1       -0.2001
     20 C          -0.1356   -0.2667   -4.3338 C.2     1  LIG1        0.2569
     21 N           0.7876   -1.2147   -4.3503 N.pl3   1  LIG1       -0.2515
     22 H          -1.7572    3.0497   -6.5678 H       1  LIG1        0.1467
     23 H           3.6952   -3.8577   -0.7282 H       1  LIG1        0.0279
     24 H           2.8460   -4.0319    0.8058 H       1  LIG1        0.0279
     25 H           2.1011   -4.6044   -0.6834 H       1  LIG1        0.0279
     26 H           0.3847   -3.2281   -1.4718 H       1  LIG1        0.0624
     27 H           0.3876    0.9965   -0.9864 H       1  LIG1        0.0624
     28 H           4.1567   -2.3567    0.7105 H       1  LIG1        0.2922
     29 H           0.9862    2.5734    0.5318 H       1  LIG1        0.0238
     30 H           2.4650    3.4996    0.4397 H       1  LIG1        0.0238
     31 H           1.8361    2.7452   -1.0058 H       1  LIG1        0.0238
     32 H           1.9967    1.1063    2.4116 H       1  LIG1        0.0238
     33 H           3.6361    0.5004    2.2548 H       1  LIG1        0.0238
     34 H           3.3520    2.2185    2.3088 H       1  LIG1        0.0238
     35 H           4.6270    2.4811    0.0014 H       1  LIG1        0.0238
     36 H           4.8996    0.7608   -0.0222 H       1  LIG1        0.0238
     37 H           4.0954    1.5322   -1.3777 H       1  LIG1        0.0238
     38 H          -1.3999   -1.9811   -2.3434 H       1  LIG1        0.0361
     39 H          -1.8185   -0.6494   -1.3097 H       1  LIG1        0.0361
     40 H          -2.6741    1.1635   -2.6272 H       1  LIG1        0.0530
     41 H          -2.5976    2.5118   -4.5759 H       1  LIG1        0.1282
     42 H           0.4956    0.3452   -6.1348 H       1  LIG1        0.2946
     43 H           0.9121   -1.7798   -3.5232 H       1  LIG1        0.2881
     44 H           1.4144   -1.3488   -5.1289 H       1  LIG1        0.2881
@<TRIPOS>BOND
     1    18    22    1
     2    18    17    1
     3    42    19    1
     4    17    19    1
     5    17    16    1
     6    19    20    1
     7    44    21    1
     8    41    16    1
     9    16    15    1
    10    21    20    1
    11    21    43    1
    12    20    14    2
    13    15    14    1
    14    15    40    1
    15    14    13    1
    16    38    13    1
    17    13    39    1
    18    13     4    1
    19    26     3    1
    20    37    12    1
    21     4     3   ar
    22     4     5   ar
    23     3     2   ar
    24    31    10    1
    25    27     5    1
    26     5     6   ar
    27    23     1    1
    28    25     1    1
    29     2     1    1
    30     2     7   ar
    31    12    36    1
    32    12    35    1
    33    12     9    1
    34     1    24    1
    35     6     7   ar
    36     6     9    1
    37     7     8    1
    38    10     9    1
    39    10    30    1
    40    10    29    1
    41     9    11    1
    42     8    28    1
    43    11    33    1
    44    11    34    1
    45    11    32    1
