@<TRIPOS>MOLECULE
SAMPL8-1_extra001
 31 32 0 0 0
SMALL
GASTEIGER

@<TRIPOS>ATOM
      1 C          -2.7292    2.6457    0.1067 C.ar    1  LIG1       -0.0609
      2 C          -1.4760    2.2145   -0.3201 C.ar    1  LIG1       -0.0600
      3 C          -1.2457    0.8602   -0.5462 C.ar    1  LIG1       -0.0412
      4 C          -2.2812   -0.0624   -0.3481 C.ar    1  LIG1        0.0291
      5 C          -3.5654    0.3463    0.1015 C.ar    1  LIG1        0.0784
      6 C          -3.7566    1.7248    0.3144 C.ar    1  LIG1       -0.0460
      7 C          -4.7360   -0.5876    0.3706 C.2     1  LIG1        0.3386
      8 O          -5.8345   -0.1852    0.7452 O.2     1  LIG1       -0.2451
      9 O          -4.4986   -1.9059    0.1817 O.3     1  LIG1       -0.4771
     10 N          -1.9537   -1.5008   -0.6134 N.pl3   1  LIG1       -0.3797
     11 C          -1.7323   -1.7318   -2.0720 C.ar    1  LIG1        0.0156
     12 C          -0.4392   -2.0117   -2.5202 C.ar    1  LIG1       -0.0420
     13 C          -0.2353   -2.2348   -3.8819 C.ar    1  LIG1       -0.0595
     14 C          -1.3082   -2.1817   -4.7751 C.ar    1  LIG1       -0.0500
     15 C          -2.6066   -1.9044   -4.3195 C.ar    1  LIG1        0.0565
     16 C          -2.8189   -1.6798   -2.9516 C.ar    1  LIG1       -0.0304
     17 C          -3.7722   -1.8502   -5.3083 C.3     1  LIG1        0.4175
     18 F          -3.8401   -0.6274   -5.8339 F       1  LIG1       -0.1659
     19 F          -3.6037   -2.7282   -6.2989 F       1  LIG1       -0.1659
     20 F          -4.9361   -2.1180   -4.7128 F       1  LIG1       -0.1659
     21 H          -2.9056    3.6988    0.2804 H       1  LIG1        0.0618
     22 H          -0.6830    2.9331   -0.4778 H       1  LIG1        0.0618
     23 H          -0.2658    0.5477   -0.8853 H       1  LIG1        0.0636
     24 H          -4.7121    2.1097    0.6526 H       1  LIG1        0.0626
     25 H          -5.3392   -2.3178    0.4083 H       1  LIG1        0.2954
     26 H          -2.7040   -2.0884   -0.2710 H       1  LIG1        0.1285
     27 H          -1.1590   -1.7965   -0.0666 H       1  LIG1        0.1285
     28 H           0.4071   -2.0566   -1.8455 H       1  LIG1        0.0636
     29 H           0.7588   -2.4499   -4.2504 H       1  LIG1        0.0618
     30 H          -1.1216   -2.3561   -5.8264 H       1  LIG1        0.0623
     31 H          -3.8145   -1.4571   -2.5874 H       1  LIG1        0.0641
@<TRIPOS>BOND
     1    19    17    1
     2    18    17    1
     3    30    14    1
     4    17    20    1
     5    17    15    1
     6    14    15   ar
     7    14    13   ar
     8    15    16   ar
     9    29    13    1
    10    13    12   ar
    11    16    31    1
    12    16    11   ar
    13    12    11   ar
    14    12    28    1
    15    11    10    1
    16    23     3    1
    17    10     4    1
    18    10    26    1
    19    10    27    1
    20     3     4   ar
    21     3     2   ar
    22    22     2    1
    23     4     5   ar
    24     2     1   ar
    25     5     6   ar
    26     5     7    1
    27     1    21    1
    28     1     6   ar
    29     9     7    1
    30     9    25    1
    31     6    24    1
    32     7     8    2
