@<TRIPOS>MOLECULE
SAMPL8-21_extra005
 41 42 0 0 0
SMALL
GASTEIGER

@<TRIPOS>ATOM
      1 C           4.9779    2.4160    2.4452 C.3     1  LIG1        0.0790
      2 O           4.7725    1.0606    2.0465 O.3     1  LIG1       -0.4913
      3 C           3.6495    0.7322    1.3029 C.ar    1  LIG1        0.1652
      4 C           2.6773    1.6637    0.9061 C.ar    1  LIG1       -0.0126
      5 C           1.5706    1.2639    0.1552 C.ar    1  LIG1       -0.0358
      6 C           1.4247   -0.0797   -0.1929 C.ar    1  LIG1       -0.0126
      7 C           2.3806   -1.0349    0.1868 C.ar    1  LIG1        0.1652
      8 C           3.4925   -0.6136    0.9364 C.ar    1  LIG1        0.2010
      9 O           4.4526   -1.5200    1.3295 O.3     1  LIG1       -0.5009
     10 O           2.2846   -2.3789   -0.1395 O.3     1  LIG1       -0.4913
     11 C           1.1715   -2.8394   -0.9055 C.3     1  LIG1        0.0790
     12 C           0.5135    2.2763   -0.2658 C.3     1  LIG1        0.0056
     13 C           0.3660    2.3991   -1.7857 C.2     1  LIG1        0.0694
     14 C           1.3857    2.8814   -2.6190 C.2     1  LIG1        0.2596
     15 N           2.5785    3.2311   -2.1654 N.pl3   1  LIG1       -0.2514
     16 N           1.2045    3.0178   -3.9376 N.pl3   1  LIG1       -0.2000
     17 C           0.0392    2.6916   -4.6199 C.3     1  LIG1        0.2980
     18 N          -0.0938    2.8386   -5.8574 N.3     1  LIG1       -0.1903
     19 N          -0.9599    2.1849   -3.7719 N.3     1  LIG1       -0.2211
     20 C          -0.8000    2.0450   -2.3886 C.3     1  LIG1        0.2018
     21 O          -1.8734    1.5714   -1.6906 O.3     1  LIG1       -0.3537
     22 C          -2.8920    0.8249   -2.3652 C.3     1  LIG1        0.0392
     23 H          -1.0092    2.5479   -6.1792 H       1  LIG1        0.1467
     24 H           4.1703    2.7754    3.0849 H       1  LIG1        0.0660
     25 H           5.9031    2.4901    3.0169 H       1  LIG1        0.0660
     26 H           5.0731    3.0799    1.5845 H       1  LIG1        0.0660
     27 H           2.7686    2.7037    1.1824 H       1  LIG1        0.0658
     28 H           0.5553   -0.3651   -0.7664 H       1  LIG1        0.0658
     29 H           5.1364   -1.0570    1.8349 H       1  LIG1        0.2924
     30 H           0.2268   -2.6697   -0.3865 H       1  LIG1        0.0660
     31 H           1.1305   -2.3616   -1.8857 H       1  LIG1        0.0660
     32 H           1.2639   -3.9129   -1.0705 H       1  LIG1        0.0660
     33 H           0.7501    3.2651    0.1307 H       1  LIG1        0.0362
     34 H          -0.4262    1.9977    0.2148 H       1  LIG1        0.0362
     35 H           2.7961    3.0809   -1.1928 H       1  LIG1        0.2881
     36 H           3.2993    3.5957   -2.7695 H       1  LIG1        0.2881
     37 H           1.9764    3.3813   -4.4676 H       1  LIG1        0.2946
     38 H          -1.8351    1.9646   -4.2135 H       1  LIG1        0.1307
     39 H          -2.4821   -0.0329   -2.9014 H       1  LIG1        0.0524
     40 H          -3.6003    0.4375   -1.6330 H       1  LIG1        0.0524
     41 H          -3.4610    1.4412   -3.0626 H       1  LIG1        0.0524
@<TRIPOS>BOND
     1    23    18    1
     2    18    17    1
     3    17    16    1
     4    17    19    1
     5    37    16    1
     6    38    19    1
     7    16    14    1
     8    19    20    1
     9    41    22    1
    10    39    22    1
    11    36    15    1
    12    14    15    1
    13    14    13    2
    14    20    13    1
    15    20    21    1
    16    22    21    1
    17    22    40    1
    18    15    35    1
    19    31    11    1
    20    13    12    1
    21    32    11    1
    22    11    30    1
    23    11    10    1
    24    28     6    1
    25    12    33    1
    26    12     5    1
    27    12    34    1
    28     6     5   ar
    29     6     7   ar
    30    10     7    1
    31     5     4   ar
    32     7     8   ar
    33     4    27    1
    34     4     3   ar
    35     8     3   ar
    36     8     9    1
    37     3     2    1
    38     9    29    1
    39    26     1    1
    40     2     1    1
    41     1    25    1
    42     1    24    1
