@<TRIPOS>MOLECULE
SAMPL8-22_extra003
 28 29 0 0 0
SMALL
GASTEIGER

@<TRIPOS>ATOM
      1 C           3.7888   -2.1074    0.4104 C.3     1  LIG1        0.0790
      2 O           3.4456   -0.7212    0.3874 O.2     1  LIG1       -0.4914
      3 C           2.1289   -0.3345    0.1846 C.2     1  LIG1        0.1618
      4 C           1.0750   -1.2465   -0.0058 C.2     1  LIG1       -0.0036
      5 C          -0.2473   -0.8159   -0.2086 C.2     1  LIG1        0.0667
      6 C          -0.4960    0.5744   -0.2167 C.3     1  LIG1        0.1051
      7 C           0.5433    1.4890   -0.0284 C.2     1  LIG1       -0.0115
      8 C           1.8605    1.0456    0.1733 C.2     1  LIG1        0.1597
      9 O           2.9345    1.9013    0.3658 O.2     1  LIG1       -0.4917
     10 C           2.7295    3.3147    0.3659 C.3     1  LIG1        0.0789
     11 N          -1.8388    1.0205   -0.4228 N.3     1  LIG1       -0.2423
     12 C          -2.8254    0.1295   -0.6024 C.3     1  LIG1        0.3026
     13 N          -2.5686   -1.1929   -0.5913 N.pl3   1  LIG1       -0.2009
     14 C          -1.3803   -1.7466   -0.4123 C.2     1  LIG1        0.2613
     15 N          -1.2886   -3.0523   -0.4270 N.pl3   1  LIG1       -0.2512
     16 CL         -4.5033    0.7295   -0.8596 Cl      1  LIG1       -0.0471
     17 H           4.8603   -2.2133    0.5800 H       1  LIG1        0.0660
     18 H           3.2822   -2.6395    1.2170 H       1  LIG1        0.0660
     19 H           3.5640   -2.5988   -0.5375 H       1  LIG1        0.0660
     20 H           1.2864   -2.3046    0.0038 H       1  LIG1        0.0661
     21 H           0.3234    2.5463   -0.0394 H       1  LIG1        0.0632
     22 H           2.3396    3.6713   -0.5887 H       1  LIG1        0.0660
     23 H           2.0574    3.6302    1.1654 H       1  LIG1        0.0660
     24 H           3.6814    3.8195    0.5309 H       1  LIG1        0.0660
     25 H          -2.0866    1.9973   -0.4403 H       1  LIG1        0.1286
     26 H          -3.3357   -1.8292   -0.7297 H       1  LIG1        0.2944
     27 H          -0.4012   -3.4989   -0.2939 H       1  LIG1        0.2881
     28 H          -2.0994   -3.6248   -0.5704 H       1  LIG1        0.2881
@<TRIPOS>BOND
     1    16    12    1
     2    26    13    1
     3    12    13    1
     4    12    11    1
     5    13    14    1
     6    22    10    1
     7    28    15    1
     8    19     1    1
     9    25    11    1
    10    15    14    1
    11    15    27    1
    12    11     6    1
    13    14     5    2
    14     6     5    1
    15     6     7    1
    16     5     4    1
    17    21     7    1
    18     7     8    2
    19     4    20    1
    20     4     3    2
    21     8     3    1
    22     8     9    1
    23     3     2    1
    24     9    10    1
    25    10    24    1
    26    10    23    1
    27     2     1    1
    28     1    17    1
    29     1    18    1
