@<TRIPOS>MOLECULE
SAMPL8-14_extra008
 45 46 0 0 0
SMALL
GASTEIGER

@<TRIPOS>ATOM
      1 C           0.6262    3.3534    0.9916 C.3     1  LIG1       -0.0362
      2 C           0.7849    1.8735    0.6497 C.ar    1  LIG1       -0.0085
      3 C          -0.3034    1.0245    0.8457 C.ar    1  LIG1       -0.0519
      4 C          -0.2026   -0.3312    0.5448 C.ar    1  LIG1       -0.0423
      5 C           1.0018   -0.8403    0.0565 C.ar    1  LIG1       -0.0511
      6 C           2.1249   -0.0192   -0.1582 C.ar    1  LIG1       -0.0001
      7 C           1.9925    1.3569    0.1503 C.ar    1  LIG1        0.1234
      8 O           3.0288    2.2378   -0.0228 O.3     1  LIG1       -0.5062
      9 C           3.4528   -0.6248   -0.7159 C.3     1  LIG1       -0.0092
     10 C           3.8219    0.0256   -2.0716 C.3     1  LIG1       -0.0559
     11 C           4.6079   -0.4335    0.2969 C.3     1  LIG1       -0.0559
     12 C           3.3681   -2.1529   -0.9849 C.3     1  LIG1       -0.0559
     13 C          -1.3926   -1.2585    0.7649 C.3     1  LIG1        0.0027
     14 C          -1.8761   -1.9582   -0.5072 C.2     1  LIG1        0.0374
     15 C          -2.0443   -3.3007   -0.5035 C.3     1  LIG1        0.0615
     16 N          -2.4898   -3.9547   -1.6226 N.3     1  LIG1       -0.2497
     17 C          -2.7858   -3.3192   -2.7565 C.3     1  LIG1        0.2795
     18 N          -3.2238   -3.9649   -3.8331 N.3     1  LIG1       -0.2722
     19 N          -2.6190   -1.9979   -2.7556 N.pl3   1  LIG1       -0.2013
     20 C          -2.1750   -1.2928   -1.7059 C.2     1  LIG1        0.2569
     21 N          -2.0461    0.0185   -1.8689 N.pl3   1  LIG1       -0.2515
     22 H           1.3474    3.6529    1.7533 H       1  LIG1        0.0279
     23 H           0.7956    3.9739    0.1106 H       1  LIG1        0.0279
     24 H          -0.3690    3.5879    1.3727 H       1  LIG1        0.0279
     25 H          -1.2309    1.4219    1.2374 H       1  LIG1        0.0624
     26 H           1.0358   -1.8980   -0.1554 H       1  LIG1        0.0624
     27 H           2.7539    3.1232    0.2433 H       1  LIG1        0.2922
     28 H           4.0520    1.0861   -1.9839 H       1  LIG1        0.0238
     29 H           4.7036   -0.4392   -2.5152 H       1  LIG1        0.0238
     30 H           3.0093   -0.0703   -2.7929 H       1  LIG1        0.0238
     31 H           4.8605    0.6131    0.4586 H       1  LIG1        0.0238
     32 H           4.3585   -0.8598    1.2695 H       1  LIG1        0.0238
     33 H           5.5254   -0.9172   -0.0416 H       1  LIG1        0.0238
     34 H           2.6022   -2.3960   -1.7229 H       1  LIG1        0.0238
     35 H           4.3077   -2.5478   -1.3748 H       1  LIG1        0.0238
     36 H           3.1513   -2.7163   -0.0761 H       1  LIG1        0.0238
     37 H          -1.1267   -1.9796    1.5411 H       1  LIG1        0.0361
     38 H          -2.2360   -0.6979    1.1734 H       1  LIG1        0.0361
     39 H          -1.8549   -3.9382    0.3514 H       1  LIG1        0.0530
     40 H          -2.6105   -4.9566   -1.6026 H       1  LIG1        0.1281
     41 H          -3.4466   -3.4771   -4.6883 H       1  LIG1        0.1237
     42 H          -3.3529   -4.9661   -3.8407 H       1  LIG1        0.1237
     43 H          -2.8341   -1.4978   -3.6028 H       1  LIG1        0.2945
     44 H          -1.6278    0.5604   -1.1273 H       1  LIG1        0.2881
     45 H          -2.2921    0.4917   -2.7241 H       1  LIG1        0.2881
@<TRIPOS>BOND
     1    41    18    1
     2    42    18    1
     3    18    17    1
     4    43    19    1
     5    30    10    1
     6    17    19    1
     7    17    16    1
     8    19    20    1
     9    45    21    1
    10    29    10    1
    11    10    28    1
    12    10     9    1
    13    21    20    1
    14    21    44    1
    15    34    12    1
    16    20    14    2
    17    16    40    1
    18    16    15    1
    19    35    12    1
    20    12     9    1
    21    12    36    1
    22     9     6    1
    23     9    11    1
    24    14    15    1
    25    14    13    1
    26    15    39    1
    27     6     5   ar
    28     6     7   ar
    29    26     5    1
    30    33    11    1
    31     8     7    1
    32     8    27    1
    33     5     4   ar
    34    23     1    1
    35     7     2   ar
    36    11    31    1
    37    11    32    1
    38     4    13    1
    39     4     3   ar
    40     2     3   ar
    41     2     1    1
    42    13    38    1
    43    13    37    1
    44     3    25    1
    45     1    24    1
    46     1    22    1
