@<TRIPOS>MOLECULE
SAMPL8-12_extra004
 42 44 0 0 0
SMALL
GASTEIGER

@<TRIPOS>ATOM
      1 C           6.5022    0.4371   -0.5300 C.3     1  LIG1       -0.0397
      2 C           5.0069    0.5554   -0.3012 C.ar    1  LIG1       -0.0504
      3 C           4.1272    0.4704   -1.3815 C.ar    1  LIG1       -0.0586
      4 C           2.7543    0.5668   -1.1690 C.ar    1  LIG1       -0.0580
      5 C           2.2597    0.7497    0.1250 C.ar    1  LIG1       -0.0427
      6 C           3.1414    0.8230    1.2065 C.ar    1  LIG1       -0.0580
      7 C           4.5141    0.7265    0.9932 C.ar    1  LIG1       -0.0586
      8 C           0.7536    0.8480    0.3655 C.3     1  LIG1        0.0064
      9 C           0.2100    2.2346    0.7628 C.2     1  LIG1        0.0607
     10 C           0.9207    3.3408    0.4225 C.2     1  LIG1        0.0057
     11 N           0.5039    4.5665    0.8706 N.pl3   1  LIG1       -0.2873
     12 C          -0.5806    4.6232    1.6591 C.3     1  LIG1        0.3507
     13 N          -1.3226    3.5661    2.0027 N.2     1  LIG1       -0.0315
     14 C          -1.0145    2.4011    1.5665 C.2     1  LIG1        0.3169
     15 N          -1.8608    1.3391    1.9067 N.pl3   1  LIG1       -0.2161
     16 C          -2.2026    0.2336    0.9771 C.3     1  LIG1        0.1039
     17 C          -3.7293    0.0153    0.8371 C.3     1  LIG1        0.0837
     18 O          -4.3444   -0.1308    2.1133 O.3     1  LIG1       -0.3724
     19 C          -4.1788    1.0588    2.8797 C.3     1  LIG1        0.0837
     20 C          -2.6799    1.3237    3.1495 C.3     1  LIG1        0.1039
     21 N          -0.9465    5.7951    2.1208 N.3     1  LIG1       -0.2637
     22 H           6.9565    1.4234   -0.6273 H       1  LIG1        0.0278
     23 H           6.9827   -0.0821    0.3002 H       1  LIG1        0.0278
     24 H           6.7234   -0.1427   -1.4270 H       1  LIG1        0.0278
     25 H           4.5031    0.3308   -2.3862 H       1  LIG1        0.0620
     26 H           2.0815    0.5016   -2.0136 H       1  LIG1        0.0620
     27 H           2.7659    0.9573    2.2121 H       1  LIG1        0.0620
     28 H           5.1910    0.7858    1.8350 H       1  LIG1        0.0620
     29 H           0.5259    0.1250    1.1512 H       1  LIG1        0.0364
     30 H           0.2264    0.5001   -0.5237 H       1  LIG1        0.0364
     31 H           1.8425    3.3449   -0.1465 H       1  LIG1        0.0785
     32 H           1.0048    5.4148    0.6604 H       1  LIG1        0.1514
     33 H          -1.8949    0.4807   -0.0404 H       1  LIG1        0.0749
     34 H          -1.6684   -0.6895    1.2111 H       1  LIG1        0.0749
     35 H          -3.9186   -0.8753    0.2363 H       1  LIG1        0.0597
     36 H          -4.1825    0.8370    0.2771 H       1  LIG1        0.0597
     37 H          -4.7079    0.9555    3.8280 H       1  LIG1        0.0597
     38 H          -4.6380    1.9196    2.3878 H       1  LIG1        0.0597
     39 H          -2.2666    0.6401    3.8937 H       1  LIG1        0.0749
     40 H          -2.6548    2.2908    3.6571 H       1  LIG1        0.0749
     41 H          -1.7626    5.8234    2.7070 H       1  LIG1        0.1243
     42 H          -0.4489    6.6440    1.9119 H       1  LIG1        0.1243
@<TRIPOS>BOND
     1    25     3    1
     2    26     4    1
     3    24     1    1
     4     3     4   ar
     5     3     2   ar
     6     4     5   ar
     7    22     1    1
     8     1     2    1
     9     1    23    1
    10    30     8    1
    11     2     7   ar
    12    31    10    1
    13    33    16    1
    14     5     8    1
    15     5     6   ar
    16    35    17    1
    17    36    17    1
    18     8     9    1
    19     8    29    1
    20    10     9    2
    21    10    11    1
    22    32    11    1
    23     9    14    1
    24    17    16    1
    25    17    18    1
    26    11    12    1
    27    16    34    1
    28    16    15    1
    29     7     6   ar
    30     7    28    1
    31     6    27    1
    32    14    15    1
    33    14    13    2
    34    12    13    1
    35    12    21    1
    36    15    20    1
    37    42    21    1
    38    18    19    1
    39    21    41    1
    40    38    19    1
    41    19    20    1
    42    19    37    1
    43    20    40    1
    44    20    39    1
