@<TRIPOS>MOLECULE
SAMPL8-21_extra001
 42 43 0 0 0
SMALL
GASTEIGER

@<TRIPOS>ATOM
      1 C          -5.2732    0.9344    0.1901 C.3     1  LIG1        0.0790
      2 O          -4.0188    1.3671    0.7166 O.3     1  LIG1       -0.4913
      3 C          -2.8450    0.8065    0.2369 C.ar    1  LIG1        0.1652
      4 C          -2.8126   -0.1751   -0.7666 C.ar    1  LIG1       -0.0126
      5 C          -1.6033   -0.7152   -1.2071 C.ar    1  LIG1       -0.0358
      6 C          -0.4055   -0.2565   -0.6575 C.ar    1  LIG1       -0.0126
      7 C          -0.4040    0.7251    0.3457 C.ar    1  LIG1        0.1652
      8 C          -1.6293    1.2486    0.7865 C.ar    1  LIG1        0.2010
      9 O          -1.6192    2.2106    1.7724 O.3     1  LIG1       -0.5009
     10 O           0.7477    1.2192    0.9386 O.3     1  LIG1       -0.4913
     11 C           2.0192    0.7166    0.5268 C.3     1  LIG1        0.0790
     12 C          -1.5913   -1.7670   -2.3096 C.3     1  LIG1        0.0056
     13 C          -1.5327   -3.1985   -1.7675 C.2     1  LIG1        0.0694
     14 C          -0.3363   -3.9347   -1.7034 C.2     1  LIG1        0.2596
     15 N           0.9022   -3.4315   -2.1106 N.pl3   1  LIG1       -0.2514
     16 N          -0.3658   -5.1856   -1.2292 N.pl3   1  LIG1       -0.2012
     17 C          -1.4869   -5.7745   -0.8197 C.3     1  LIG1        0.2815
     18 N          -1.4642   -7.0691   -0.3407 N.3     1  LIG1       -0.2721
     19 N          -2.6330   -5.1011   -0.8816 N.3     1  LIG1       -0.2223
     20 C          -2.7088   -3.8354   -1.3401 C.3     1  LIG1        0.2018
     21 O          -3.9308   -3.1893   -1.3926 O.3     1  LIG1       -0.3537
     22 C          -5.0974   -3.8027   -0.8373 C.3     1  LIG1        0.0392
     23 H          -5.4386   -0.1302    0.3638 H       1  LIG1        0.0660
     24 H          -6.0804    1.4739    0.6856 H       1  LIG1        0.0660
     25 H          -5.3541    1.1378   -0.8788 H       1  LIG1        0.0660
     26 H          -3.7281   -0.5324   -1.2141 H       1  LIG1        0.0658
     27 H           0.5227   -0.6740   -1.0165 H       1  LIG1        0.0658
     28 H          -0.7034    2.3927    2.0271 H       1  LIG1        0.2924
     29 H           2.1090   -0.3551    0.7112 H       1  LIG1        0.0660
     30 H           2.2082    0.9131   -0.5298 H       1  LIG1        0.0660
     31 H           2.8070    1.2112    1.0950 H       1  LIG1        0.0660
     32 H          -0.7675   -1.5656   -2.9960 H       1  LIG1        0.0362
     33 H          -2.4796   -1.6509   -2.9350 H       1  LIG1        0.0362
     34 H           1.7349   -3.9924   -2.0486 H       1  LIG1        0.2881
     35 H           0.9799   -2.5064   -2.4941 H       1  LIG1        0.2881
     36 H           0.4884   -5.7086   -1.1807 H       1  LIG1        0.2945
     37 H          -0.6020   -7.5805   -0.2932 H       1  LIG1        0.1237
     38 H          -2.3074   -7.5164   -0.0316 H       1  LIG1        0.1237
     39 H          -3.4683   -5.5651   -0.5797 H       1  LIG1        0.1307
     40 H          -5.9449   -3.1248   -0.9380 H       1  LIG1        0.0524
     41 H          -5.3657   -4.7236   -1.3570 H       1  LIG1        0.0524
     42 H          -4.9851   -4.0134    0.2275 H       1  LIG1        0.0524
@<TRIPOS>BOND
     1    32    12    1
     2    33    12    1
     3    35    15    1
     4    12    13    1
     5    12     5    1
     6    15    34    1
     7    15    14    1
     8    13    14    2
     9    13    20    1
    10    14    16    1
    11    21    20    1
    12    21    22    1
    13    41    22    1
    14    20    19    1
    15    16    36    1
    16    16    17    1
    17    26     4    1
    18     5     4   ar
    19     5     6   ar
    20    27     6    1
    21    40    22    1
    22    19    17    1
    23    19    39    1
    24    25     1    1
    25    22    42    1
    26    17    18    1
    27     4     3   ar
    28     6     7   ar
    29    30    11    1
    30    18    37    1
    31    18    38    1
    32     1    23    1
    33     1    24    1
    34     1     2    1
    35     3     2    1
    36     3     8   ar
    37     7     8   ar
    38     7    10    1
    39    11    29    1
    40    11    10    1
    41    11    31    1
    42     8     9    1
    43     9    28    1
