@<TRIPOS>MOLECULE
SAMPL8-14_extra005
 45 46 0 0 0
SMALL
GASTEIGER

@<TRIPOS>ATOM
      1 C           0.3043    2.4702    2.6174 C.3     1  LIG1       -0.0362
      2 C           0.6245    1.7960    1.2851 C.ar    1  LIG1       -0.0085
      3 C          -0.1092    2.1655    0.1587 C.ar    1  LIG1       -0.0519
      4 C           0.1513    1.5772   -1.0760 C.ar    1  LIG1       -0.0423
      5 C           1.1453    0.6026   -1.1783 C.ar    1  LIG1       -0.0511
      6 C           1.9112    0.2006   -0.0676 C.ar    1  LIG1       -0.0001
      7 C           1.6294    0.8200    1.1746 C.ar    1  LIG1        0.1234
      8 O           2.3189    0.4964    2.3147 O.3     1  LIG1       -0.5062
      9 C           3.0221   -0.8868   -0.2244 C.3     1  LIG1       -0.0092
     10 C           2.7089   -2.1187    0.6594 C.3     1  LIG1       -0.0559
     11 C           3.1577   -1.4248   -1.6759 C.3     1  LIG1       -0.0559
     12 C           4.4092   -0.3068    0.1454 C.3     1  LIG1       -0.0559
     13 C          -0.6561    1.9793   -2.3052 C.3     1  LIG1        0.0027
     14 C           0.1903    2.5613   -3.4394 C.2     1  LIG1        0.0374
     15 C           0.0540    2.0665   -4.6912 C.3     1  LIG1        0.0615
     16 N           0.7870    2.5777   -5.7301 N.3     1  LIG1       -0.2497
     17 C           1.6547    3.5780   -5.5777 C.3     1  LIG1        0.2795
     18 N           2.3529    4.0685   -6.5965 N.3     1  LIG1       -0.2722
     19 N           1.7845    4.0610   -4.3437 N.pl3   1  LIG1       -0.2013
     20 C           1.1147    3.6043   -3.2765 C.2     1  LIG1        0.2569
     21 N           1.3714    4.1815   -2.1089 N.pl3   1  LIG1       -0.2515
     22 H           1.1775    2.9983    3.0030 H       1  LIG1        0.0279
     23 H          -0.5075    3.1943    2.5328 H       1  LIG1        0.0279
     24 H           0.0068    1.7309    3.3624 H       1  LIG1        0.0279
     25 H          -0.8880    2.9121    0.2462 H       1  LIG1        0.0624
     26 H           1.3067    0.1689   -2.1533 H       1  LIG1        0.0624
     27 H           1.9866    1.0154    3.0567 H       1  LIG1        0.2922
     28 H           3.4330   -2.9201    0.5055 H       1  LIG1        0.0238
     29 H           2.7306   -1.8927    1.7242 H       1  LIG1        0.0238
     30 H           1.7228   -2.5279    0.4359 H       1  LIG1        0.0238
     31 H           3.9409   -2.1804   -1.7559 H       1  LIG1        0.0238
     32 H           2.2379   -1.8971   -2.0241 H       1  LIG1        0.0238
     33 H           3.4189   -0.6348   -2.3817 H       1  LIG1        0.0238
     34 H           4.4849   -0.0256    1.1944 H       1  LIG1        0.0238
     35 H           5.2084   -1.0278   -0.0326 H       1  LIG1        0.0238
     36 H           4.6389    0.5814   -0.4447 H       1  LIG1        0.0238
     37 H          -1.2286    1.1110   -2.6391 H       1  LIG1        0.0361
     38 H          -1.4043    2.7275   -2.0355 H       1  LIG1        0.0361
     39 H          -0.6228    1.2661   -4.9632 H       1  LIG1        0.0530
     40 H           0.6634    2.2073   -6.6608 H       1  LIG1        0.1281
     41 H           2.7237    5.0074   -6.5802 H       1  LIG1        0.1237
     42 H           2.5386    3.5221   -7.4250 H       1  LIG1        0.1237
     43 H           2.4476    4.8060   -4.2030 H       1  LIG1        0.2945
     44 H           0.9513    3.7976   -1.2754 H       1  LIG1        0.2881
     45 H           2.0140    4.9513   -2.0075 H       1  LIG1        0.2881
@<TRIPOS>BOND
     1    42    18    1
     2    40    16    1
     3    18    41    1
     4    18    17    1
     5    16    17    1
     6    16    15    1
     7    17    19    1
     8    39    15    1
     9    15    14    1
    10    19    43    1
    11    19    20    1
    12    14    20    2
    13    14    13    1
    14    20    21    1
    15    37    13    1
    16    33    11    1
    17    13    38    1
    18    13     4    1
    19    26     5    1
    20    21    45    1
    21    21    44    1
    22    32    11    1
    23    31    11    1
    24    11     9    1
    25     5     4   ar
    26     5     6   ar
    27     4     3   ar
    28    36    12    1
    29     9     6    1
    30     9    12    1
    31     9    10    1
    32     6     7   ar
    33    35    12    1
    34    12    34    1
    35     3    25    1
    36     3     2   ar
    37    30    10    1
    38    28    10    1
    39    10    29    1
    40     7     2   ar
    41     7     8    1
    42     2     1    1
    43     8    27    1
    44    23     1    1
    45     1    22    1
    46     1    24    1
