@<TRIPOS>MOLECULE
*****
   43    44     0     0     0
SMALL
USER_CHARGES

@<TRIPOS>ATOM
      1 C1         -2.6115   -3.0793    0.4642 C.ar      1 <0>        -0.1500
      2 C2         -4.0457   -1.6823    1.8163 C.ar      1 <0>        -0.1500
      3 C3         -3.1279   -1.8215    0.7752 C.ar      1 <0>        -0.1435
      4 C4         -3.0128   -4.1980    1.1943 C.ar      1 <0>        -0.1435
      5 C5         -4.4471   -2.8011    2.5465 C.ar      1 <0>        -0.1435
      6 C6         -3.9306   -4.0589    2.2354 C.ar      1 <0>         0.0825
      7 C7         -0.1972   -0.5433   -0.1945 C.2       1 <0>        -0.0500
      8 C8         -1.3384   -0.1297    0.3719 C.2       1 <0>        -0.1238
      9 C9         -1.1629    0.9015    1.4725 C.2       1 <0>         0.4856
     10 C10         1.1430    0.8600    1.1894 C.2       1 <0>         0.7110
     11 C11        -2.4486   -5.5362    0.8465 C.3       1 <0>         0.1435
     12 C12        -5.8574   -1.1399    3.8102 C.3       1 <0>         0.0000
     13 C13        -4.8261   -3.0915    5.0201 C.3       1 <0>         0.0000
     14 C14        -6.7634   -3.4344    3.5000 C.3       1 <0>         0.0000
     15 C15        -2.6951   -0.6134   -0.0135 C.3       1 <0>         0.2817
     16 C16        -5.4302   -2.6320    3.6577 C.3       1 <0>         0.1435
     17 N1          0.0218    1.3487    1.8354 N.2       1 <0>        -0.6610
     18 N2          2.2861    1.3336    1.5848 N.2       1 <0>        -0.8500
     19 N3          1.0256   -0.0751    0.1872 N.pl3     1 <0>        -0.5500
     20 N4         -2.2754    1.3934    2.1205 N.pl3     1 <0>        -0.8500
     21 O1         -4.3224   -5.1528    2.9498 O.3       1 <0>        -0.5325
     22 H1         -1.8963   -3.1875   -0.3479 H         1 <0>         0.1500
     23 H2         -4.4460   -0.7008    2.0597 H         1 <0>         0.1500
     24 H3         -0.1609   -1.2749   -0.9920 H         1 <0>         0.1500
     25 H4         -1.5324   -5.7227    1.4187 H         1 <0>         0.0000
     26 H5         -3.1656   -6.3375    1.0638 H         1 <0>         0.0000
     27 H6         -2.2121   -5.6009   -0.2229 H         1 <0>         0.0000
     28 H7         -6.5800   -0.9880    4.6205 H         1 <0>         0.0000
     29 H8         -4.9975   -0.4955    4.0236 H         1 <0>         0.0000
     30 H9         -6.3164   -0.7794    2.8820 H         1 <0>         0.0000
     31 H10        -5.5433   -2.9696    5.8391 H         1 <0>         0.0000
     32 H11        -4.5231   -4.1451    5.0140 H         1 <0>         0.0000
     33 H12        -3.9418   -2.4915    5.2651 H         1 <0>         0.0000
     34 H13        -7.4515   -3.2777    4.3395 H         1 <0>         0.0000
     35 H14        -7.2943   -3.1345    2.5889 H         1 <0>         0.0000
     36 H15        -6.5665   -4.5112    3.4420 H         1 <0>         0.0000
     37 H16        -2.7060   -0.8537   -1.0837 H         1 <0>         0.0000
     38 H17        -3.4193    0.1994    0.1177 H         1 <0>         0.0000
     39 H18         3.0301    0.8983    1.0357 H         1 <0>         0.4000
     40 H19         1.8410   -0.4395   -0.2925 H         1 <0>         0.4000
     41 H20        -3.1623    1.0525    1.8420 H         1 <0>         0.4000
     42 H21        -2.1366    2.0650    2.8347 H         1 <0>         0.4000
     43 H22        -3.8775   -5.9465    2.6151 H         1 <0>         0.4500
@<TRIPOS>BOND
     1    1    3 ar
     2    1    4 ar
     3    2    3 ar
     4    2    5 ar
     5    3   15 1
     6    4    6 ar
     7    4   11 1
     8    5    6 ar
     9    5   16 1
    10    6   21 1
    11    7    8 2
    12    7   19 1
    13    8    9 1
    14    8   15 1
    15    9   17 2
    16    9   20 1
    17   10   17 1
    18   10   18 2
    19   10   19 1
    20   12   16 1
    21   13   16 1
    22   14   16 1
    23    1   22 1
    24    2   23 1
    25    7   24 1
    26   11   25 1
    27   11   26 1
    28   11   27 1
    29   12   28 1
    30   12   29 1
    31   12   30 1
    32   13   31 1
    33   13   32 1
    34   13   33 1
    35   14   34 1
    36   14   35 1
    37   14   36 1
    38   15   37 1
    39   15   38 1
    40   18   39 1
    41   19   40 1
    42   20   41 1
    43   20   42 1
    44   21   43 1
