@<TRIPOS>MOLECULE
*****
   38    39     0     0     0
SMALL
USER_CHARGES

@<TRIPOS>ATOM
      1 C1          2.0322   -3.2995   -2.6733 C.ar      1 <0>        -0.1500
      2 C2          1.8756   -3.3094   -0.2625 C.ar      1 <0>        -0.1500
      3 C3          1.3541   -2.9504   -1.5054 C.ar      1 <0>        -0.1435
      4 C4          3.7532   -4.3664   -1.3554 C.ar      1 <0>        -0.1710
      5 C5          3.2317   -4.0075   -2.5983 C.ar      1 <0>         0.0825
      6 C6          3.0751   -4.0174   -0.1874 C.ar      1 <0>         0.0825
      7 C7         -1.1344   -3.0541   -1.3510 C.2       1 <0>        -0.1238
      8 C8         -1.8916   -3.0965   -0.2306 C.2       1 <0>        -0.1233
      9 C9         -1.5564   -3.9878   -2.4396 C.2       1 <0>         0.7646
     10 C10        -3.4123   -4.7541   -1.0104 C.2       1 <0>        -0.1410
     11 C11         3.5123   -5.5722   -4.3672 C.3       1 <0>         0.2800
     12 C12         3.1253   -5.5965    1.5901 C.3       1 <0>         0.2800
     13 C13        -2.1930   -1.0150    0.7461 C.3       1 <0>         0.2800
     14 C14         0.0602   -2.1867   -1.5864 C.3       1 <0>         0.2817
     15 N1         -2.9816   -3.8439    0.0602 N.2       1 <0>        -0.5700
     16 N2         -4.5870   -5.5897   -0.7719 N.2       1 <0>        -0.9200
     17 N3         -0.9487   -4.0977   -3.5729 N.2       1 <0>        -0.8500
     18 N4         -2.8237   -4.8521   -2.1171 N.pl3     1 <0>        -0.0480
     19 O1          4.8579   -5.0185   -1.2863 O.3       1 <0>        -0.8290
     20 O2          3.8597   -4.3270   -3.7693 O.3       1 <0>        -0.3625
     21 O3          3.5464   -4.3467    1.0523 O.3       1 <0>        -0.3625
     22 O4         -1.5535   -2.2628    0.8246 O.3       1 <0>        -0.3567
     23 H1          1.6268   -3.0202   -3.6429 H         1 <0>         0.1500
     24 H2          1.3479   -3.0378    0.6487 H         1 <0>         0.1500
     25 H3          4.0811   -5.7050   -5.2907 H         1 <0>         0.0000
     26 H4          2.4407   -5.5882   -4.5812 H         1 <0>         0.0000
     27 H5          3.7554   -6.3800   -3.6728 H         1 <0>         0.0000
     28 H6          3.5699   -5.7372    2.5783 H         1 <0>         0.0000
     29 H7          3.4338   -6.4043    0.9217 H         1 <0>         0.0000
     30 H8          2.0364   -5.5961    1.6796 H         1 <0>         0.0000
     31 H9         -1.8945   -0.3977    1.5970 H         1 <0>         0.0000
     32 H10        -3.2764   -1.1590    0.7490 H         1 <0>         0.0000
     33 H11        -1.8955   -0.5208   -0.1818 H         1 <0>         0.0000
     34 H12         0.0665   -1.3744   -0.8512 H         1 <0>         0.0000
     35 H13        -0.0344   -1.7062   -2.5660 H         1 <0>         0.0000
     36 H14        -4.8821   -5.7715   -1.6969 H         1 <0>         0.1500
     37 H15        -1.4272   -4.8000   -4.1455 H         1 <0>         0.4000
     38 H16        -3.1534   -5.4984   -2.8355 H         1 <0>         0.4000
@<TRIPOS>BOND
     1    1    3 ar
     2    1    5 ar
     3    2    3 ar
     4    2    6 ar
     5    3   14 1
     6    4    5 ar
     7    4    6 ar
     8    4   19 1
     9    5   20 1
    10    6   21 1
    11    7    8 2
    12    7    9 1
    13    7   14 1
    14    8   15 1
    15    8   22 1
    16    9   17 2
    17    9   18 1
    18   10   15 1
    19   10   16 1
    20   10   18 2
    21   11   20 1
    22   12   21 1
    23   13   22 1
    24    1   23 1
    25    2   24 1
    26   11   25 1
    27   11   26 1
    28   11   27 1
    29   12   28 1
    30   12   29 1
    31   12   30 1
    32   13   31 1
    33   13   32 1
    34   13   33 1
    35   14   34 1
    36   14   35 1
    37   16   36 1
    38   17   37 1
    39   18   38 1
