@<TRIPOS>MOLECULE
*****
   48    51     0     0     0
SMALL
USER_CHARGES

@<TRIPOS>ATOM
      1 C1         -0.2679    2.5154    2.3644 C.ar      1 <0>        -0.1500
      2 C2         -1.1785    2.3762    1.2953 C.ar      1 <0>        -0.1500
      3 C3         -0.5990    2.1346    3.6727 C.ar      1 <0>        -0.1090
      4 C4         -2.4646    1.8496    1.4823 C.ar      1 <0>        -0.1090
      5 C5         -2.5516   -1.6231   -0.8196 C.ar      1 <0>         0.1600
      6 C6         -0.4651   -2.4816   -0.2147 C.ar      1 <0>         0.1600
      7 C7         -4.2530   -2.5696    2.2306 C.ar      1 <0>         0.1600
      8 C8         -1.8381   -2.5599   -0.1002 C.ar      1 <0>        -0.1435
      9 C9         -2.9810   -3.1002    2.0807 C.ar      1 <0>        -0.1435
     10 C10        -1.8766    1.6145    3.8423 C.ar      1 <0>         0.3090
     11 C11        -2.7780    1.4768    2.7840 C.ar      1 <0>         0.3090
     12 C12        -2.1764   -3.1325    3.2087 C.ar      1 <0>         0.4435
     13 C13        -3.7601    0.7408    4.6382 C.cat     1 <0>         0.6560
     14 C14        -0.6335   -0.7054   -1.6233 C.ar      1 <0>         0.7025
     15 C15        -3.8888   -2.1639    4.4333 C.ar      1 <0>         0.7725
     16 C16        -1.9689    1.0995    6.3030 C.3       1 <0>         0.5140
     17 C17        -0.8657    1.1481   -3.0951 C.3       1 <0>         0.2800
     18 C18        -2.5186   -3.6071    0.7614 C.3       1 <0>         0.2870
     19 C19        -4.7799    0.1728    5.5554 C.3       1 <0>         0.3740
     20 N1         -1.9796   -0.6780   -1.5942 N.ar      1 <0>        -0.6200
     21 N2          0.1730   -1.5638   -0.9703 N.ar      1 <0>        -0.6200
     22 N3         -4.7437   -2.0902    3.3940 N.ar      1 <0>        -0.6200
     23 N4         -2.5288    1.1468    4.9647 N.pl3     1 <0>        -0.7640
     24 N5         -3.9251    0.9339    3.3255 N.pl3     1 <0>        -0.7000
     25 N6         -2.6474   -2.6612    4.3712 N.ar      1 <0>        -0.1790
     26 O1         -0.9085   -3.6412    3.1413 O.3       1 <0>        -0.5325
     27 O2         -0.0160    0.2434   -2.4046 O.3       1 <0>        -0.3625
     28 S1         -4.4406   -1.5611    5.9981 S.3       1 <0>        -0.3315
     29 H1          0.7182    2.9298    2.1667 H         1 <0>         0.1500
     30 H2         -0.8730    2.6866    0.2985 H         1 <0>         0.1500
     31 H3          0.0935    2.2379    4.4982 H         1 <0>         0.1500
     32 H4         -3.1723    1.7376    0.6711 H         1 <0>         0.1500
     33 H5         -3.6365   -1.5997   -0.7959 H         1 <0>         0.1500
     34 H6          0.1855   -3.1734    0.3112 H         1 <0>         0.1500
     35 H7         -4.9391   -2.5119    1.3910 H         1 <0>         0.1500
     36 H8         -2.2035    2.0443    6.8004 H         1 <0>         0.0000
     37 H9         -2.4060    0.2602    6.8511 H         1 <0>         0.0000
     38 H10        -0.8864    0.9593    6.2371 H         1 <0>         0.0000
     39 H11        -0.2593    1.8471   -3.6764 H         1 <0>         0.0000
     40 H12        -1.4803    1.6940   -2.3749 H         1 <0>         0.0000
     41 H13        -1.5134    0.5831   -3.7695 H         1 <0>         0.0000
     42 H14        -3.3615   -4.0403    0.1915 H         1 <0>         0.0000
     43 H15        -1.8288   -4.4616    0.8907 H         1 <0>         0.0000
     44 H16        -4.8461    0.7563    6.4885 H         1 <0>         0.0000
     45 H17        -5.7854    0.2173    5.1056 H         1 <0>         0.0000
     46 H18        -4.7694    0.7134    2.8042 H         1 <0>         0.4500
     47 H19        -2.0626   -2.6813    5.2046 H         1 <0>         0.4570
     48 H20        -0.4860   -3.5893    4.0109 H         1 <0>         0.4500
@<TRIPOS>BOND
     1    1    2 ar
     2    1    3 ar
     3    2    4 ar
     4    3   10 ar
     5    4   11 ar
     6    5    8 ar
     7    5   20 ar
     8    6    8 ar
     9    6   21 ar
    10    7    9 ar
    11    7   22 ar
    12    8   18 1
    13    9   12 ar
    14    9   18 1
    15   10   11 ar
    16   10   23 1
    17   11   24 1
    18   12   25 ar
    19   12   26 1
    20   13   19 1
    21   13   23 1
    22   13   24 2
    23   14   20 ar
    24   14   21 ar
    25   14   27 1
    26   15   22 ar
    27   15   25 ar
    28   15   28 1
    29   16   23 1
    30   17   27 1
    31   19   28 1
    32    1   29 1
    33    2   30 1
    34    3   31 1
    35    4   32 1
    36    5   33 1
    37    6   34 1
    38    7   35 1
    39   16   36 1
    40   16   37 1
    41   16   38 1
    42   17   39 1
    43   17   40 1
    44   17   41 1
    45   18   42 1
    46   18   43 1
    47   19   44 1
    48   19   45 1
    49   24   46 1
    50   25   47 1
    51   26   48 1
