@<TRIPOS>MOLECULE
*****
   42    43     0     0     0
SMALL
USER_CHARGES

@<TRIPOS>ATOM
      1 C1         -1.8248   -2.4936   -3.5668 C.ar      1 <0>        -0.1500
      2 C2         -2.7774   -2.4684   -1.3468 C.ar      1 <0>        -0.1500
      3 C3         -2.0882   -1.8222   -2.3729 C.ar      1 <0>        -0.1435
      4 C4         -2.2507   -3.8112   -3.7347 C.ar      1 <0>        -0.1435
      5 C5         -3.2033   -3.7861   -1.5145 C.ar      1 <0>        -0.1435
      6 C6         -2.9399   -4.4574   -2.7085 C.ar      1 <0>         0.0825
      7 C7         -3.4952    0.9547   -1.1214 C.2       1 <0>         0.3756
      8 C8         -2.7399    0.5864   -2.3390 C.2       1 <0>        -0.1238
      9 C9         -3.1655    1.2098   -3.4667 C.2       1 <0>        -0.4000
     10 C10        -4.8542    2.3820   -2.2680 C.cat     1 <0>         0.2900
     11 C11        -1.9591   -4.5133   -5.0200 C.3       1 <0>         0.1435
     12 C12        -4.1094   -3.5099    0.8197 C.3       1 <0>         0.0000
     13 C13        -3.1784   -5.7308    0.0868 C.3       1 <0>         0.0000
     14 C14        -5.3825   -4.9497   -0.7577 C.3       1 <0>         0.0000
     15 C15        -1.6290   -0.3999   -2.1918 C.3       1 <0>         0.2817
     16 C16        -3.9393   -4.4612   -0.4044 C.3       1 <0>         0.1435
     17 N1         -4.1896    2.1063   -3.5506 N.2       1 <0>        -0.5700
     18 N2         -4.4778    1.7937   -1.1088 N.2       1 <0>        -0.6510
     19 N3         -2.6250    1.0292   -4.6985 N.2       1 <0>        -0.9500
     20 N4         -5.8109    3.1912   -2.2205 N.pl3     1 <0>        -0.1190
     21 O1         -3.3556   -5.7461   -2.8724 O.3       1 <0>        -0.5325
     22 H1         -1.2878   -1.9893   -4.3669 H         1 <0>         0.1500
     23 H2         -2.9800   -1.9450   -0.4152 H         1 <0>         0.1500
     24 H3         -3.1802    0.4701   -0.1834 H         1 <0>         0.0600
     25 H4         -0.9938   -5.0292   -4.9607 H         1 <0>         0.0000
     26 H5         -2.7362   -5.2515   -5.2537 H         1 <0>         0.0000
     27 H6         -1.9271   -3.8071   -5.8591 H         1 <0>         0.0000
     28 H7         -4.6475   -3.9819    1.6500 H         1 <0>         0.0000
     29 H8         -3.1403   -3.1822    1.2116 H         1 <0>         0.0000
     30 H9         -4.6670   -2.6119    0.5282 H         1 <0>         0.0000
     31 H10        -3.7140   -6.2303    0.9014 H         1 <0>         0.0000
     32 H11        -3.0390   -6.4736   -0.7075 H         1 <0>         0.0000
     33 H12        -2.1864   -5.4565    0.4647 H         1 <0>         0.0000
     34 H13        -5.8811   -5.4380    0.0883 H         1 <0>         0.0000
     35 H14        -6.0160   -4.1084   -1.0623 H         1 <0>         0.0000
     36 H15        -5.3589   -5.6748   -1.5795 H         1 <0>         0.0000
     37 H16        -1.1719   -0.2863   -1.2018 H         1 <0>         0.0000
     38 H17        -0.8404   -0.1638   -2.9153 H         1 <0>         0.0000
     39 H18        -1.9310    0.2966   -4.6106 H         1 <0>         0.1500
     40 H19        -6.1787    3.6988   -3.0588 H         1 <0>         0.4000
     41 H20        -6.3228    3.4279   -1.3387 H         1 <0>         0.4000
     42 H21        -3.0981   -6.0707   -3.7489 H         1 <0>         0.4500
@<TRIPOS>BOND
     1    1    3 ar
     2    1    4 ar
     3    2    3 ar
     4    2    5 ar
     5    3   15 1
     6    4    6 ar
     7    4   11 1
     8    5    6 ar
     9    5   16 1
    10    6   21 1
    11    7    8 1
    12    7   18 2
    13    8    9 2
    14    8   15 1
    15    9   17 1
    16    9   19 1
    17   10   17 1
    18   10   18 1
    19   10   20 2
    20   12   16 1
    21   13   16 1
    22   14   16 1
    23    1   22 1
    24    2   23 1
    25    7   24 1
    26   11   25 1
    27   11   26 1
    28   11   27 1
    29   12   28 1
    30   12   29 1
    31   12   30 1
    32   13   31 1
    33   13   32 1
    34   13   33 1
    35   14   34 1
    36   14   35 1
    37   14   36 1
    38   15   37 1
    39   15   38 1
    40   19   39 1
    41   20   40 1
    42   20   41 1
    43   21   42 1
