@<TRIPOS>MOLECULE
*****
   36    38     0     0     0
SMALL
USER_CHARGES

@<TRIPOS>ATOM
      1 C1          2.9654    4.1741   -7.0230 C.ar      1 <0>        -0.1500
      2 C2          4.2801    3.8228   -6.6995 C.ar      1 <0>        -0.1500
      3 C3          3.7853    3.9621   -4.3212 C.ar      1 <0>        -0.1500
      4 C4          2.0693    4.4172   -5.9914 C.ar      1 <0>        -0.2520
      5 C5          2.4921    4.3073   -4.6603 C.ar      1 <0>         0.1000
      6 C6          4.6859    3.7180   -5.3592 C.ar      1 <0>         0.1110
      7 C7          0.3467    4.8868   -4.7813 C.2       1 <0>         0.2800
      8 C8          0.5458    0.8721   -0.3772 C.3       1 <0>         0.0000
      9 C9         -0.0830    2.1483    0.1726 C.3       1 <0>         0.0000
     10 C10         0.5463    0.8574   -1.9023 C.3       1 <0>         0.0000
     11 C11         0.5888    3.3990   -0.3973 C.3       1 <0>         0.0000
     12 C12         1.2221    2.1031   -2.4773 C.3       1 <0>         0.0000
     13 C13         0.6065    3.4027   -1.9336 C.3       1 <0>         0.2800
     14 C14         1.3682    4.6222   -2.4559 C.3       1 <0>         0.3691
     15 N1          0.7613    4.7692   -6.0677 N.2       1 <0>        -0.5280
     16 N2         -0.8740    5.2221   -4.5249 N.2       1 <0>        -0.8500
     17 N3          1.3799    4.6069   -3.8791 N.pl3     1 <0>        -0.5191
     18 O1         -0.7457    3.5046   -2.3900 O.3       1 <0>        -0.6800
     19 Br1         6.4716    3.2403   -4.9574 Br        1 <0>        -0.1110
     20 H1          2.6640    4.2533   -8.0630 H         1 <0>         0.1500
     21 H2          4.9844    3.6329   -7.5062 H         1 <0>         0.1500
     22 H3          4.0864    3.8839   -3.2817 H         1 <0>         0.1500
     23 H4          1.5764    0.7867   -0.0113 H         1 <0>         0.0000
     24 H5          0.0000   -0.0002   -0.0002 H         1 <0>         0.0000
     25 H6         -1.1533    2.1617   -0.0667 H         1 <0>         0.0000
     26 H7         -0.0031    2.1555    1.2656 H         1 <0>         0.0000
     27 H8          1.0650   -0.0389   -2.2611 H         1 <0>         0.0000
     28 H9         -0.4855    0.7935   -2.2688 H         1 <0>         0.0000
     29 H10         0.0482    4.2780   -0.0247 H         1 <0>         0.0000
     30 H11         1.6145    3.4589   -0.0116 H         1 <0>         0.0000
     31 H12         2.2929    2.0699   -2.2392 H         1 <0>         0.0000
     32 H13         1.1310    2.0697   -3.5700 H         1 <0>         0.0000
     33 H14         0.8525    5.5051   -2.0843 H         1 <0>         0.0000
     34 H15         2.3802    4.5606   -2.0615 H         1 <0>         0.0000
     35 H16        -1.0059    5.2613   -3.5098 H         1 <0>         0.4000
     36 H17        -1.2091    2.7306   -2.0385 H         1 <0>         0.4000
@<TRIPOS>BOND
     1    1    2 ar
     2    1    4 ar
     3    2    6 ar
     4    3    5 ar
     5    3    6 ar
     6    4    5 ar
     7    4   15 1
     8    5   17 1
     9    6   19 1
    10    7   15 1
    11    7   16 2
    12    7   17 1
    13    8    9 1
    14    8   10 1
    15    9   11 1
    16   10   12 1
    17   11   13 1
    18   12   13 1
    19   13   14 1
    20   13   18 1
    21   14   17 1
    22    1   20 1
    23    2   21 1
    24    3   22 1
    25    8   23 1
    26    8   24 1
    27    9   25 1
    28    9   26 1
    29   10   27 1
    30   10   28 1
    31   11   29 1
    32   11   30 1
    33   12   31 1
    34   12   32 1
    35   14   33 1
    36   14   34 1
    37   16   35 1
    38   18   36 1
