@<TRIPOS>MOLECULE
*****
   26    28     0     0     0
SMALL
USER_CHARGES

@<TRIPOS>ATOM
      1 C1          5.5198    0.0699    2.8126 C.ar      1 <0>        -0.1500
      2 C2          4.3729    0.3330    3.5617 C.ar      1 <0>        -0.1500
      3 C3          5.4168   -0.1810    1.4443 C.ar      1 <0>        -0.1500
      4 C4          3.1231    0.3452    2.9425 C.ar      1 <0>        -0.1500
      5 C5          4.1670   -0.1688    0.8252 C.ar      1 <0>        -0.1500
      6 C6          3.0201    0.0943    1.5742 C.ar      1 <0>         0.0862
      7 C7         -0.4744    1.2819    0.4053 C.2       1 <0>        -0.2882
      8 C8          1.7079    0.1070    0.9243 C.2       1 <0>         0.3028
      9 C9         -0.8517    0.1429   -0.1561 C.2       1 <0>         0.0288
     10 C10         0.0445   -1.0185   -0.2184 C.2       1 <0>         0.6466
     11 C11        -2.0677   -0.3312   -0.8339 C.2       1 <0>         0.4856
     12 C12         0.8951    1.4129    0.9851 C.3       1 <0>         0.4892
     13 N1          1.2816   -0.9783    0.3434 N.2       1 <0>        -0.6610
     14 N2         -0.4864   -2.0486   -0.8314 N.2       1 <0>        -0.4920
     15 N3         -3.1435    0.3471   -1.0169 N.2       1 <0>        -0.8500
     16 N4         -1.7564   -1.6273   -1.2013 N.pl3     1 <0>        -0.4080
     17 Cl1         1.7948    2.6429    0.0549 Cl        1 <0>        -0.2900
     18 H1          6.4929    0.0605    3.2947 H         1 <0>         0.1500
     19 H2          4.4533    0.5282    4.6271 H         1 <0>         0.1500
     20 H3          6.3098   -0.3855    0.8610 H         1 <0>         0.1500
     21 H4          2.2359    0.5514    3.5357 H         1 <0>         0.1500
     22 H5          4.0987   -0.3658   -0.2416 H         1 <0>         0.1500
     23 H6         -1.1504    2.1302    0.4429 H         1 <0>         0.1500
     24 H7          0.8377    1.7475    2.0259 H         1 <0>         0.0000
     25 H8         -3.8310   -0.2285   -1.5168 H         1 <0>         0.4000
     26 H9         -2.3841   -2.2522   -1.6936 H         1 <0>         0.4000
@<TRIPOS>BOND
     1    1    2 ar
     2    1    3 ar
     3    2    4 ar
     4    3    5 ar
     5    4    6 ar
     6    5    6 ar
     7    6    8 1
     8    7    9 2
     9    7   12 1
    10    8   12 1
    11    8   13 2
    12    9   10 1
    13    9   11 1
    14   10   13 1
    15   10   14 2
    16   11   15 2
    17   11   16 1
    18   12   17 1
    19   14   16 1
    20    1   18 1
    21    2   19 1
    22    3   20 1
    23    4   21 1
    24    5   22 1
    25    7   23 1
    26   12   24 1
    27   15   25 1
    28   16   26 1
