@<TRIPOS>MOLECULE
*****
   39    40     0     0     0
SMALL
USER_CHARGES

@<TRIPOS>ATOM
      1 C1          3.0883   -0.8003    1.6054 C.ar      1 <0>        -0.1500
      2 C2          2.8116   -0.5268    3.9898 C.ar      1 <0>        -0.1500
      3 C3          2.2656   -0.5645    2.7068 C.ar      1 <0>        -0.1435
      4 C4          4.4571   -0.9984    1.7870 C.ar      1 <0>         0.0825
      5 C5          4.1803   -0.7250    4.1715 C.ar      1 <0>         0.0825
      6 C6          5.0031   -0.9607    3.0700 C.ar      1 <0>         0.0825
      7 C7         -0.0192   -1.5539    2.8748 C.2       1 <0>        -0.1238
      8 C8         -0.7625   -1.7011    3.9860 C.2       1 <0>         0.1767
      9 C9         -0.0265   -2.7357    1.9329 C.2       1 <0>         0.2156
     10 C10        -1.4519   -3.9301    3.3259 C.2       1 <0>         0.2800
     11 C11         4.6121   -1.2504   -0.5727 C.3       1 <0>         0.2800
     12 C12         3.7911   -0.4390    6.5001 C.3       1 <0>         0.2800
     13 C13        -2.1723   -0.2580    5.1294 C.3       1 <0>         0.2800
     14 C14         0.7890   -0.3504    2.5111 C.3       1 <0>         0.2817
     15 N1         -0.7316   -3.8397    2.2067 N.2       1 <0>        -0.5600
     16 N2          0.6525   -2.7135    0.8299 N.2       1 <0>        -0.8500
     17 N3         -2.1110   -5.0285    3.5316 N.2       1 <0>        -0.8500
     18 N4         -1.4524   -2.8646    4.1880 N.pl3     1 <0>        -0.5500
     19 O1          6.3410   -1.1544    3.2475 O.3       1 <0>        -0.5325
     20 O2          5.2496   -1.2278    0.7029 O.3       1 <0>        -0.3625
     21 O3          4.7009   -0.6855    5.4298 O.3       1 <0>        -0.3625
     22 O4         -0.8525   -0.7102    4.9366 O.3       1 <0>        -0.3567
     23 H1          2.6651   -0.8300    0.6042 H         1 <0>         0.1500
     24 H2          2.1724   -0.3432    4.8501 H         1 <0>         0.1500
     25 H3          5.3563   -1.4425   -1.3494 H         1 <0>         0.0000
     26 H4          4.1213   -0.2906   -0.7528 H         1 <0>         0.0000
     27 H5          3.8646   -2.0471   -0.5825 H         1 <0>         0.0000
     28 H6          4.3351   -0.4331    7.4478 H         1 <0>         0.0000
     29 H7          3.0233   -1.2167    6.5132 H         1 <0>         0.0000
     30 H8          3.3185    0.5343    6.3479 H         1 <0>         0.0000
     31 H9         -2.1824    0.5248    5.8918 H         1 <0>         0.0000
     32 H10        -2.8029   -1.0941    5.4421 H         1 <0>         0.0000
     33 H11        -2.5499    0.1485    4.1882 H         1 <0>         0.0000
     34 H12         0.4585    0.5022    3.1148 H         1 <0>         0.0000
     35 H13         0.5811   -0.0811    1.4699 H         1 <0>         0.0000
     36 H14         0.5167   -3.6004    0.3381 H         1 <0>         0.4000
     37 H15        -2.6109   -4.9524    4.4203 H         1 <0>         0.4000
     38 H16        -1.9948   -2.9186    5.0438 H         1 <0>         0.4000
     39 H17         6.7730   -1.3049    2.3925 H         1 <0>         0.4500
@<TRIPOS>BOND
     1    1    3 ar
     2    1    4 ar
     3    2    3 ar
     4    2    5 ar
     5    3   14 1
     6    4    6 ar
     7    4   20 1
     8    5    6 ar
     9    5   21 1
    10    6   19 1
    11    7    8 2
    12    7    9 1
    13    7   14 1
    14    8   18 1
    15    8   22 1
    16    9   15 1
    17    9   16 2
    18   10   15 1
    19   10   17 2
    20   10   18 1
    21   11   20 1
    22   12   21 1
    23   13   22 1
    24    1   23 1
    25    2   24 1
    26   11   25 1
    27   11   26 1
    28   11   27 1
    29   12   28 1
    30   12   29 1
    31   12   30 1
    32   13   31 1
    33   13   32 1
    34   13   33 1
    35   14   34 1
    36   14   35 1
    37   16   36 1
    38   17   37 1
    39   18   38 1
    40   19   39 1
