@<TRIPOS>MOLECULE
*****
   42    43     0     0     0
SMALL
USER_CHARGES

@<TRIPOS>ATOM
      1 C1         -2.1301   -2.6655   -3.0551 C.ar      1 <0>        -0.1500
      2 C2         -3.2616   -2.0693   -1.0054 C.ar      1 <0>        -0.1500
      3 C3         -2.4013   -1.7356   -2.0514 C.ar      1 <0>        -0.1435
      4 C4         -2.7193   -3.9291   -3.0129 C.ar      1 <0>        -0.1435
      5 C5         -3.8508   -3.3330   -0.9631 C.ar      1 <0>        -0.1435
      6 C6         -3.5796   -4.2629   -1.9668 C.ar      1 <0>         0.0825
      7 C7         -3.5126    1.4298   -1.7847 C.2       1 <0>        -0.3500
      8 C8         -2.7055    0.6883   -2.5606 C.2       1 <0>        -0.1238
      9 C9         -2.8181    1.0134   -3.9997 C.2       1 <0>         0.6466
     10 C10        -4.4193    2.6245   -3.4565 C.2       1 <0>         0.2800
     11 C11        -2.4166   -4.9110   -4.0965 C.3       1 <0>         0.1435
     12 C12        -4.9115   -2.4751    1.1546 C.3       1 <0>         0.0000
     13 C13        -4.2387   -4.8941    0.9758 C.3       1 <0>         0.0000
     14 C14        -6.2292   -4.0475   -0.2500 C.3       1 <0>         0.0000
     15 C15        -1.7654   -0.3704   -2.0972 C.3       1 <0>         0.2817
     16 C16        -4.7687   -3.6719    0.1649 C.3       1 <0>         0.1435
     17 N1         -4.3837    2.4000   -2.1400 N.2       1 <0>        -0.5800
     18 N2         -3.7062    2.0005   -4.3562 N.2       1 <0>        -0.6610
     19 N3         -2.1327    0.4228   -4.9209 N.2       1 <0>        -0.8500
     20 N4         -5.3099    3.6108   -3.7872 N.pl3     1 <0>        -0.8500
     21 O1         -4.1551   -5.4988   -1.9252 O.3       1 <0>        -0.5325
     22 H1         -1.4597   -2.4048   -3.8708 H         1 <0>         0.1500
     23 H2         -3.4705   -1.3445   -0.2219 H         1 <0>         0.1500
     24 H3         -3.4406    1.2021   -0.7202 H         1 <0>         0.1500
     25 H4         -1.5417   -5.5147   -3.8286 H         1 <0>         0.0000
     26 H5         -3.2654   -5.5838   -4.2705 H         1 <0>         0.0000
     27 H6         -2.2126   -4.4022   -5.0469 H         1 <0>         0.0000
     28 H7         -5.5812   -2.6980    1.9934 H         1 <0>         0.0000
     29 H8         -3.9444   -2.1912    1.5841 H         1 <0>         0.0000
     30 H9         -5.3105   -1.5968    0.6334 H         1 <0>         0.0000
     31 H10        -4.9084   -5.1472    1.8049 H         1 <0>         0.0000
     32 H11        -4.1350   -5.7960    0.3612 H         1 <0>         0.0000
     33 H12        -3.2553   -4.6677    1.4046 H         1 <0>         0.0000
     34 H13        -6.8636   -4.2878    0.6117 H         1 <0>         0.0000
     35 H14        -6.7098   -3.2180   -0.7818 H         1 <0>         0.0000
     36 H15        -6.2348   -4.9242   -0.9081 H         1 <0>         0.0000
     37 H16        -1.3865   -0.1122   -1.1003 H         1 <0>         0.0000
     38 H17        -0.8873   -0.3884   -2.7542 H         1 <0>         0.0000
     39 H18        -2.3833    0.8177   -5.8324 H         1 <0>         0.4000
     40 H19        -5.8228    4.0480   -3.0562 H         1 <0>         0.4000
     41 H20        -5.4110    3.8536   -4.7460 H         1 <0>         0.4000
     42 H21        -3.8692   -6.0256   -2.6872 H         1 <0>         0.4500
@<TRIPOS>BOND
     1    1    3 ar
     2    1    4 ar
     3    2    3 ar
     4    2    5 ar
     5    3   15 1
     6    4    6 ar
     7    4   11 1
     8    5    6 ar
     9    5   16 1
    10    6   21 1
    11    7    8 2
    12    7   17 1
    13    8    9 1
    14    8   15 1
    15    9   18 1
    16    9   19 2
    17   10   17 1
    18   10   18 2
    19   10   20 1
    20   12   16 1
    21   13   16 1
    22   14   16 1
    23    1   22 1
    24    2   23 1
    25    7   24 1
    26   11   25 1
    27   11   26 1
    28   11   27 1
    29   12   28 1
    30   12   29 1
    31   12   30 1
    32   13   31 1
    33   13   32 1
    34   13   33 1
    35   14   34 1
    36   14   35 1
    37   14   36 1
    38   15   37 1
    39   15   38 1
    40   19   39 1
    41   20   40 1
    42   20   41 1
    43   21   42 1
