@<TRIPOS>MOLECULE
*****
   36    38     0     0     0
SMALL
USER_CHARGES

@<TRIPOS>ATOM
      1 C1          1.0029    3.3146   -0.2233 C.ar      1 <0>        -0.1500
      2 C2          1.0365    4.5578   -0.8529 C.ar      1 <0>        -0.1500
      3 C3         -0.0929    2.4657   -0.3945 C.ar      1 <0>        -0.1500
      4 C4         -4.7838    0.2933   -0.3705 C.ar      1 <0>        -0.1500
      5 C5         -0.0268    4.9605   -1.6595 C.ar      1 <0>        -0.1500
      6 C6         -5.9561   -0.4028   -0.6649 C.ar      1 <0>        -0.1500
      7 C7         -3.7082   -0.7067   -2.2888 C.ar      1 <0>        -0.1500
      8 C8         -1.1619    2.8651   -1.2022 C.ar      1 <0>         0.0862
      9 C9         -3.6598    0.1414   -1.1825 C.ar      1 <0>         0.1790
     10 C10        -1.1295    4.1197   -1.8390 C.ar      1 <0>         0.1000
     11 C11        -6.0045   -1.2509   -1.7713 C.ar      1 <0>         0.0825
     12 C12        -4.8805   -1.4028   -2.5833 C.ar      1 <0>         0.0825
     13 C13        -2.3680    2.0079   -1.4312 C.2       1 <0>         0.5748
     14 C14        -3.2578    3.6364   -2.7802 C.2       1 <0>         0.7090
     15 C15        -8.2580   -1.7134   -1.1683 C.3       1 <0>         0.2800
     16 C16        -3.7239   -2.3282   -4.4439 C.3       1 <0>         0.2800
     17 N1         -3.3904    2.4653   -2.2430 N.2       1 <0>        -0.6610
     18 N2         -2.4790    0.8415   -0.8858 N.2       1 <0>        -0.6290
     19 N3         -2.2081    4.5001   -2.6428 N.pl3     1 <0>        -0.5500
     20 O1         -7.1556   -1.9249   -2.0481 O.3       1 <0>        -0.3625
     21 O2         -4.9152   -2.2291   -3.6659 O.3       1 <0>        -0.3625
     22 Cl1        -4.5314    4.1979   -3.7859 Cl        1 <0>        -0.2090
     23 H1          1.8331    3.0044    0.4053 H         1 <0>         0.1500
     24 H2          1.8919    5.2127   -0.7158 H         1 <0>         0.1500
     25 H3         -0.0968    1.5024    0.1076 H         1 <0>         0.1500
     26 H4         -4.7556    0.9521    0.4936 H         1 <0>         0.1500
     27 H5          0.0120    5.9315   -2.1466 H         1 <0>         0.1500
     28 H6         -6.8279   -0.2801   -0.0277 H         1 <0>         0.1500
     29 H7         -2.8334   -0.8283   -2.9234 H         1 <0>         0.1500
     30 H8         -9.1110   -2.3092   -1.5020 H         1 <0>         0.0000
     31 H9         -8.5213   -0.6527   -1.1611 H         1 <0>         0.0000
     32 H10        -7.9726   -2.0228   -0.1600 H         1 <0>         0.0000
     33 H11        -3.8872   -3.0183   -5.2752 H         1 <0>         0.0000
     34 H12        -2.9054   -2.6864   -3.8145 H         1 <0>         0.0000
     35 H13        -3.4731   -1.3403   -4.8373 H         1 <0>         0.0000
     36 H14        -2.1909    5.4020   -3.1020 H         1 <0>         0.4000
@<TRIPOS>BOND
     1    1    2 ar
     2    1    3 ar
     3    2    5 ar
     4    3    8 ar
     5    4    6 ar
     6    4    9 ar
     7    5   10 ar
     8    6   11 ar
     9    7    9 ar
    10    7   12 ar
    11    8   10 ar
    12    8   13 1
    13    9   18 1
    14   10   19 1
    15   11   12 ar
    16   11   20 1
    17   12   21 1
    18   13   17 1
    19   13   18 2
    20   14   17 2
    21   14   19 1
    22   14   22 1
    23   15   20 1
    24   16   21 1
    25    1   23 1
    26    2   24 1
    27    3   25 1
    28    4   26 1
    29    5   27 1
    30    6   28 1
    31    7   29 1
    32   15   30 1
    33   15   31 1
    34   15   32 1
    35   16   33 1
    36   16   34 1
    37   16   35 1
    38   19   36 1
