@<TRIPOS>MOLECULE
*****
   38    39     0     0     0
SMALL
USER_CHARGES

@<TRIPOS>ATOM
      1 C1          1.4352   -3.5506    0.8689 C.ar      1 <0>        -0.1500
      2 C2          0.6364   -3.1954    3.1211 C.ar      1 <0>        -0.1500
      3 C3          0.4887   -3.0198    1.7452 C.ar      1 <0>        -0.1435
      4 C4          2.6770   -4.4326    2.7443 C.ar      1 <0>        -0.1710
      5 C5          2.5294   -4.2571    1.3684 C.ar      1 <0>         0.0825
      6 C6          1.7305   -3.9018    3.6206 C.ar      1 <0>         0.0825
      7 C7         -1.5177   -3.0717    0.2624 C.2       1 <0>        -0.1238
      8 C8         -1.5485   -2.9510   -1.0772 C.2       1 <0>        -0.1233
      9 C9         -2.4232   -4.1417    0.7609 C.cat     1 <0>         0.5966
     10 C10        -3.0387   -4.5777   -1.4320 C.2       1 <0>         0.0100
     11 C11         3.1878   -6.0741   -0.0176 C.3       1 <0>         0.2800
     12 C12         1.2138   -5.1961    5.5477 C.3       1 <0>         0.2800
     13 C13        -1.4073   -0.7556   -1.8107 C.3       1 <0>         0.2800
     14 C14        -0.6914   -2.2578    1.2064 C.3       1 <0>         0.2817
     15 N1         -2.2643   -3.6462   -1.9862 N.2       1 <0>        -0.5800
     16 N2         -3.1506   -4.8492   -0.1674 N.2       1 <0>        -0.6610
     17 N3         -3.7514   -5.2751   -2.3063 N.2       1 <0>        -0.9300
     18 N4         -2.5506   -4.4271    2.0056 N.pl3     1 <0>        -0.2000
     19 O1          3.6847   -5.0833    3.2043 O.3       1 <0>        -0.8290
     20 O2          3.4301   -4.7584    0.4713 O.3       1 <0>        -0.3625
     21 O3          1.8325   -4.0479    4.9756 O.3       1 <0>        -0.3625
     22 O4         -0.7508   -1.9904   -1.6784 O.3       1 <0>        -0.3567
     23 H1          1.3213   -3.4144   -0.2040 H         1 <0>         0.1500
     24 H2         -0.1009   -2.7820    3.8053 H         1 <0>         0.1500
     25 H3          3.9755   -6.3528   -0.7217 H         1 <0>         0.0000
     26 H4          2.2138   -6.1062   -0.5124 H         1 <0>         0.0000
     27 H5          3.1902   -6.7717    0.8232 H         1 <0>         0.0000
     28 H6          1.3680   -5.1932    6.6295 H         1 <0>         0.0000
     29 H7          1.6452   -6.0998    5.1099 H         1 <0>         0.0000
     30 H8          0.1426   -5.1661    5.3346 H         1 <0>         0.0000
     31 H9         -0.7383   -0.0358   -2.2885 H         1 <0>         0.0000
     32 H10        -1.7054   -0.3928   -0.8238 H         1 <0>         0.0000
     33 H11        -2.2965   -0.8905   -2.4311 H         1 <0>         0.0000
     34 H12        -1.3210   -1.9199    2.0367 H         1 <0>         0.0000
     35 H13        -0.3541   -1.3505    0.6944 H         1 <0>         0.0000
     36 H14        -3.1096   -5.7347   -2.9562 H         1 <0>         0.1500
     37 H15        -2.0270   -3.9255    2.7383 H         1 <0>         0.4000
     38 H16        -3.1828   -5.1720    2.3343 H         1 <0>         0.4000
@<TRIPOS>BOND
     1    1    3 ar
     2    1    5 ar
     3    2    3 ar
     4    2    6 ar
     5    3   14 1
     6    4    5 ar
     7    4    6 ar
     8    4   19 1
     9    5   20 1
    10    6   21 1
    11    7    8 2
    12    7    9 1
    13    7   14 1
    14    8   15 1
    15    8   22 1
    16    9   16 1
    17    9   18 2
    18   10   15 1
    19   10   16 2
    20   10   17 1
    21   11   20 1
    22   12   21 1
    23   13   22 1
    24    1   23 1
    25    2   24 1
    26   11   25 1
    27   11   26 1
    28   11   27 1
    29   12   28 1
    30   12   29 1
    31   12   30 1
    32   13   31 1
    33   13   32 1
    34   13   33 1
    35   14   34 1
    36   14   35 1
    37   17   36 1
    38   18   37 1
    39   18   38 1
