@<TRIPOS>MOLECULE
*****
   27    29     0     0     0
SMALL
USER_CHARGES

@<TRIPOS>ATOM
      1 C1          5.4273   -2.6371    1.3337 C.ar      1 <0>        -0.1500
      2 C2          4.2410   -3.2174    1.7826 C.ar      1 <0>        -0.1500
      3 C3          5.3916   -1.4369    0.6237 C.ar      1 <0>        -0.1500
      4 C4          3.0190   -2.5977    1.5214 C.ar      1 <0>        -0.1500
      5 C5          4.1696   -0.8172    0.3625 C.ar      1 <0>        -0.1500
      6 C6          2.9832   -1.3975    0.8114 C.ar      1 <0>         0.0284
      7 C7         -0.1266    0.7815    1.0617 C.2       1 <0>        -0.1500
      8 C8          1.7080   -0.7502    0.5384 C.2       1 <0>         0.3126
      9 C9         -0.7236    0.4243   -0.0755 C.2       1 <0>        -0.0156
     10 C10         1.1509    0.1569    1.3784 C.2       1 <0>         0.1400
     11 C11        -2.0027    0.8233   -0.7350 C.2       1 <0>         0.4856
     12 C12        -0.0950   -0.5807   -0.9837 C.cat     1 <0>         0.7388
     13 N1         -2.8315    1.6814   -0.2477 N.2       1 <0>        -0.8500
     14 N2          1.0711   -1.1190   -0.6498 N.pl3     1 <0>        -0.6454
     15 N3         -2.0958    0.1090   -1.9141 N.pl3     1 <0>        -0.2380
     16 N4         -0.9092   -0.7379   -2.0286 N.pl3     1 <0>        -0.5164
     17 Cl1         1.8975    0.6444    2.8632 Cl        1 <0>        -0.1400
     18 H1          6.3788   -3.1190    1.5382 H         1 <0>         0.1500
     19 H2          4.2686   -4.1514    2.3364 H         1 <0>         0.1500
     20 H3          6.3153   -0.9844    0.2752 H         1 <0>         0.1500
     21 H4          2.1026   -3.0623    1.8777 H         1 <0>         0.1500
     22 H5          4.1582    0.1180   -0.1922 H         1 <0>         0.1500
     23 H6         -0.5643    1.5082    1.7356 H         1 <0>         0.1500
     24 H7         -3.6288    1.7823   -0.8844 H         1 <0>         0.4000
     25 H8          1.4986   -1.8019   -1.2671 H         1 <0>         0.4500
     26 H9         -2.8223    0.1181   -2.6168 H         1 <0>         0.4000
     27 H10        -0.7189   -1.3662   -2.7989 H         1 <0>         0.4500
@<TRIPOS>BOND
     1    1    2 ar
     2    1    3 ar
     3    2    4 ar
     4    3    5 ar
     5    4    6 ar
     6    5    6 ar
     7    6    8 1
     8    7    9 2
     9    7   10 1
    10    8   10 2
    11    8   14 1
    12    9   11 1
    13    9   12 1
    14   10   17 1
    15   11   13 2
    16   11   15 1
    17   12   14 1
    18   12   16 2
    19   15   16 1
    20    1   18 1
    21    2   19 1
    22    3   20 1
    23    4   21 1
    24    5   22 1
    25    7   23 1
    26   13   24 1
    27   14   25 1
    28   15   26 1
    29   16   27 1
