@<TRIPOS>MOLECULE
*****
   39    40     0     0     0
SMALL
USER_CHARGES

@<TRIPOS>ATOM
      1 C1          1.2037   -0.2878    4.3715 C.ar      1 <0>        -0.1500
      2 C2          2.3399    1.0590    2.7186 C.ar      1 <0>        -0.1500
      3 C3          1.1648    0.5003    3.2213 C.ar      1 <0>        -0.1435
      4 C4          3.5928    0.0417    4.5165 C.ar      1 <0>        -0.1710
      5 C5          2.4177   -0.5171    5.0192 C.ar      1 <0>         0.0825
      6 C6          3.5539    0.8297    3.3662 C.ar      1 <0>         0.0825
      7 C7         -0.1306    0.2912    1.0988 C.2       1 <0>        -0.1238
      8 C8         -0.0499    1.0957    0.0238 C.2       1 <0>         0.1767
      9 C9         -0.2125   -1.1971    0.7905 C.2       1 <0>         0.4856
     10 C10        -0.1189   -0.7668   -1.4861 C.2       1 <0>         0.7110
     11 C11         2.5863   -2.6961    5.9569 C.3       1 <0>         0.2800
     12 C12         5.3938    0.6319    1.8725 C.3       1 <0>         0.2800
     13 C13        -1.0383    3.1367   -0.4612 C.3       1 <0>         0.2800
     14 C14        -0.1445    0.7476    2.5228 C.3       1 <0>         0.2817
     15 N1         -0.2046   -1.6636   -0.4401 N.2       1 <0>        -0.6610
     16 N2         -0.1146   -1.2764   -2.6808 N.2       1 <0>        -0.8500
     17 N3         -0.0436    0.5853   -1.2487 N.pl3     1 <0>        -0.5500
     18 N4         -0.2984   -2.1015    1.8273 N.pl3     1 <0>        -0.8500
     19 O1          4.7108   -0.1695    5.1130 O.3       1 <0>        -0.8290
     20 O2          2.4059   -1.2955    6.1424 O.3       1 <0>        -0.3625
     21 O3          4.6782    1.3980    2.8366 O.3       1 <0>        -0.3625
     22 O4          0.0296    2.4649    0.1628 O.3       1 <0>        -0.3567
     23 H1          0.2883   -0.7240    4.7644 H         1 <0>         0.1500
     24 H2          2.3108    1.6736    1.8220 H         1 <0>         0.1500
     25 H3          2.5565   -3.1996    6.9262 H         1 <0>         0.0000
     26 H4          3.5468   -2.8791    5.4686 H         1 <0>         0.0000
     27 H5          1.7803   -3.0778    5.3257 H         1 <0>         0.0000
     28 H6          6.2650    1.1964    1.5311 H         1 <0>         0.0000
     29 H7          4.7392    0.4051    1.0272 H         1 <0>         0.0000
     30 H8          5.7252   -0.3010    2.3347 H         1 <0>         0.0000
     31 H9         -0.9244    4.2142   -0.3197 H         1 <0>         0.0000
     32 H10        -1.9840    2.7996   -0.0295 H         1 <0>         0.0000
     33 H11        -1.0260    2.9085   -1.5297 H         1 <0>         0.0000
     34 H12        -0.9498    0.2328    3.0580 H         1 <0>         0.0000
     35 H13        -0.3944    1.8133    2.5536 H         1 <0>         0.0000
     36 H14        -0.0482   -0.5174   -3.3620 H         1 <0>         0.4000
     37 H15         0.0189    1.2443   -2.0163 H         1 <0>         0.4000
     38 H16        -0.3040   -1.7469    2.7516 H         1 <0>         0.4000
     39 H17        -0.3504   -3.0635    1.5996 H         1 <0>         0.4000
@<TRIPOS>BOND
     1    1    3 ar
     2    1    5 ar
     3    2    3 ar
     4    2    6 ar
     5    3   14 1
     6    4    5 ar
     7    4    6 ar
     8    4   19 1
     9    5   20 1
    10    6   21 1
    11    7    8 2
    12    7    9 1
    13    7   14 1
    14    8   17 1
    15    8   22 1
    16    9   15 2
    17    9   18 1
    18   10   15 1
    19   10   16 2
    20   10   17 1
    21   11   20 1
    22   12   21 1
    23   13   22 1
    24    1   23 1
    25    2   24 1
    26   11   25 1
    27   11   26 1
    28   11   27 1
    29   12   28 1
    30   12   29 1
    31   12   30 1
    32   13   31 1
    33   13   32 1
    34   13   33 1
    35   14   34 1
    36   14   35 1
    37   16   36 1
    38   17   37 1
    39   18   38 1
    40   18   39 1
