@<TRIPOS>MOLECULE
*****
   36    38     0     0     0
SMALL
USER_CHARGES

@<TRIPOS>ATOM
      1 C1          4.4423   -1.5136   -3.9686 C.ar      1 <0>        -0.1090
      2 C2          3.7421   -2.7150   -3.7882 C.ar      1 <0>        -0.1500
      3 C3          1.7867   -1.5754   -2.8267 C.ar      1 <0>        -0.1090
      4 C4          3.7762   -0.3630   -3.5633 C.ar      1 <0>         0.3090
      5 C5          2.4933   -0.3928   -3.0117 C.ar      1 <0>         0.3090
      6 C6          2.4460   -2.7452   -3.2308 C.ar      1 <0>         0.1110
      7 C7          3.1715    1.7234   -3.0885 C.cat     1 <0>         1.0700
      8 C8          1.6199    0.5277    0.1252 C.3       1 <0>         0.0000
      9 C9         -0.2057    2.2449   -0.0566 C.3       1 <0>         0.0000
     10 C10         1.6570    0.8317    1.6208 C.3       1 <0>         0.2800
     11 C11        -0.0615    2.4515    1.4488 C.3       1 <0>         0.2800
     12 C12         1.1027    1.7311   -0.6743 C.3       1 <0>         0.2800
     13 C13         0.9132    1.3670   -2.1464 C.3       1 <0>         0.5140
     14 N1          4.1515    0.9646   -3.5897 N.pl3     1 <0>        -0.8667
     15 N2          2.1640    0.9183   -2.7355 N.pl3     1 <0>        -0.9307
     16 N3          3.2083    3.0774   -2.9660 N.pl3     1 <0>        -0.8367
     17 O1          0.3740    1.2502    2.0838 O.3       1 <0>        -0.5600
     18 O2          2.0891    2.7647   -0.6017 O.3       1 <0>        -0.6800
     19 Br1         1.5702   -4.4126   -3.0222 Br        1 <0>        -0.1110
     20 H1          5.4364   -1.4764   -4.3949 H         1 <0>         0.1500
     21 H2          4.2253   -3.6424   -4.0920 H         1 <0>         0.1500
     22 H3          0.7929   -1.5731   -2.3972 H         1 <0>         0.1500
     23 H4          2.6262    0.2452   -0.2058 H         1 <0>         0.0000
     24 H5          0.9548   -0.3292   -0.0412 H         1 <0>         0.0000
     25 H6         -1.0011    1.5102   -0.2351 H         1 <0>         0.0000
     26 H7         -0.5099    3.1915   -0.5181 H         1 <0>         0.0000
     27 H8          1.9324   -0.0715    2.1745 H         1 <0>         0.0000
     28 H9          2.4006    1.6015    1.8584 H         1 <0>         0.0000
     29 H10         0.6388    3.2626    1.6801 H         1 <0>         0.0000
     30 H11        -1.0308    2.7227    1.8793 H         1 <0>         0.0000
     31 H12         0.5454    2.2358   -2.6960 H         1 <0>         0.0000
     32 H13         0.1661    0.5759   -2.2373 H         1 <0>         0.0000
     33 H14         5.0407    1.3136   -3.9371 H         1 <0>         0.4500
     34 H15         4.0420    3.6182   -3.2190 H         1 <0>         0.4500
     35 H16         2.4412    3.5991   -2.5290 H         1 <0>         0.4500
     36 H17         2.1919    2.9753    0.3377 H         1 <0>         0.4000
@<TRIPOS>BOND
     1    1    2 ar
     2    1    4 ar
     3    2    6 ar
     4    3    5 ar
     5    3    6 ar
     6    4    5 ar
     7    4   14 1
     8    5   15 1
     9    6   19 1
    10    7   14 1
    11    7   15 2
    12    7   16 1
    13    8   10 1
    14    8   12 1
    15    9   11 1
    16    9   12 1
    17   10   17 1
    18   11   17 1
    19   12   13 1
    20   12   18 1
    21   13   15 1
    22    1   20 1
    23    2   21 1
    24    3   22 1
    25    8   23 1
    26    8   24 1
    27    9   25 1
    28    9   26 1
    29   10   27 1
    30   10   28 1
    31   11   29 1
    32   11   30 1
    33   13   31 1
    34   13   32 1
    35   14   33 1
    36   16   34 1
    37   16   35 1
    38   18   36 1
