@<TRIPOS>MOLECULE
*****
   47    50     0     0     0
SMALL
USER_CHARGES

@<TRIPOS>ATOM
      1 C1         -8.5180    2.4749    2.0538 C.ar      1 <0>        -0.1500
      2 C2         -8.5335    1.2990    1.2736 C.ar      1 <0>        -0.1500
      3 C3         -7.5959    2.6609    3.0937 C.ar      1 <0>        -0.1090
      4 C4         -7.6277    0.2518    1.4952 C.ar      1 <0>        -0.1090
      5 C5         -9.9982    2.8035    6.3546 C.ar      1 <0>         0.1600
      6 C6        -11.4195    0.9976    5.9361 C.ar      1 <0>         0.1600
      7 C7        -10.3779    1.5167    6.6776 C.ar      1 <0>        -0.1435
      8 C8         -6.7047    1.6146    3.3012 C.ar      1 <0>         0.3090
      9 C9         -6.7201    0.4507    2.5289 C.ar      1 <0>         0.3090
     10 C10        -5.0920    0.2699    4.0325 C.cat     1 <0>         0.6560
     11 C11       -11.5869    2.9189    4.7328 C.ar      1 <0>         0.7025
     12 C12        -7.2090    0.8426    7.4931 C.2       1 <0>         0.0210
     13 C13        -8.3729    0.1892    7.3447 C.2       1 <0>        -0.1238
     14 C14        -8.3277   -1.1619    6.7144 C.2       1 <0>         0.6156
     15 C15        -5.9458   -0.7841    6.5746 C.2       1 <0>         0.6510
     16 C16        -5.3552   -1.6625    2.5140 C.3       1 <0>         0.5140
     17 C17       -11.7217    4.9517    3.5060 C.3       1 <0>         0.2800
     18 C18        -9.6994    0.7302    7.7670 C.3       1 <0>         0.2817
     19 C19        -3.9524   -0.2506    4.8289 C.3       1 <0>         0.3740
     20 N1        -10.5830    3.5363    5.3844 N.ar      1 <0>        -0.6200
     21 N2        -12.0494    1.6734    4.9527 N.ar      1 <0>        -0.6200
     22 N3         -5.9683    0.3889    7.1198 N.2       1 <0>        -0.6210
     23 N4         -5.6830    1.4552    4.2147 N.pl3     1 <0>        -0.7000
     24 N5         -5.7071   -0.3478    3.0186 N.pl3     1 <0>        -0.7640
     25 N6         -7.0558   -1.5696    6.3582 N.am      1 <0>        -0.4900
     26 O1         -9.3412   -1.8308    6.5389 O.2       1 <0>        -0.5700
     27 O2        -12.2075    3.6373    3.7376 O.3       1 <0>        -0.3625
     28 S1         -4.4594   -1.5100    6.0431 S.3       1 <0>        -0.3710
     29 H1         -9.2423    3.2582    1.8416 H         1 <0>         0.1500
     30 H2         -9.2694    1.2036    0.4782 H         1 <0>         0.1500
     31 H3         -7.5733    3.5574    3.6995 H         1 <0>         0.1500
     32 H4         -7.6328   -0.6532    0.9014 H         1 <0>         0.1500
     33 H5         -9.1886    3.3015    6.8785 H         1 <0>         0.1500
     34 H6        -11.7929   -0.0063    6.1130 H         1 <0>         0.1500
     35 H7         -7.2030    1.8290    7.9474 H         1 <0>         0.1500
     36 H8         -4.6062   -1.5501    1.7253 H         1 <0>         0.0000
     37 H9         -4.9480   -2.2832    3.3171 H         1 <0>         0.0000
     38 H10        -6.2456   -2.1527    2.1101 H         1 <0>         0.0000
     39 H11       -12.2924    5.4147    2.6972 H         1 <0>         0.0000
     40 H12       -10.6625    4.9081    3.2402 H         1 <0>         0.0000
     41 H13       -11.8425    5.5412    4.4179 H         1 <0>         0.0000
     42 H14        -9.5665    1.3663    8.6496 H         1 <0>         0.0000
     43 H15       -10.3395   -0.0993    8.0877 H         1 <0>         0.0000
     44 H16        -3.1813   -0.6951    4.1783 H         1 <0>         0.0000
     45 H17        -3.4469    0.5628    5.3751 H         1 <0>         0.0000
     46 H18        -5.4191    2.1372    4.9207 H         1 <0>         0.4500
     47 H19        -6.9371   -2.4791    5.9225 H         1 <0>         0.3700
@<TRIPOS>BOND
     1    1    2 ar
     2    1    3 ar
     3    2    4 ar
     4    3    8 ar
     5    4    9 ar
     6    5    7 ar
     7    5   20 ar
     8    6    7 ar
     9    6   21 ar
    10    7   18 1
    11    8    9 ar
    12    8   23 1
    13    9   24 1
    14   10   19 1
    15   10   23 1
    16   10   24 2
    17   11   20 ar
    18   11   21 ar
    19   11   27 1
    20   12   13 2
    21   12   22 1
    22   13   14 1
    23   13   18 1
    24   14   25 am
    25   14   26 2
    26   15   22 2
    27   15   25 1
    28   15   28 1
    29   16   24 1
    30   17   27 1
    31   19   28 1
    32    1   29 1
    33    2   30 1
    34    3   31 1
    35    4   32 1
    36    5   33 1
    37    6   34 1
    38   12   35 1
    39   16   36 1
    40   16   37 1
    41   16   38 1
    42   17   39 1
    43   17   40 1
    44   17   41 1
    45   18   42 1
    46   18   43 1
    47   19   44 1
    48   19   45 1
    49   23   46 1
    50   25   47 1
