@<TRIPOS>MOLECULE
*****
   38    39     0     0     0
SMALL
USER_CHARGES

@<TRIPOS>ATOM
      1 C1          1.9226   -3.4785   -2.2441 C.ar      1 <0>        -0.1500
      2 C2          1.6809   -3.4554    0.1596 C.ar      1 <0>        -0.1500
      3 C3          1.2129   -3.0985   -1.1051 C.ar      1 <0>        -0.1435
      4 C4          3.5681   -4.5725   -0.8540 C.ar      1 <0>        -0.1710
      5 C5          3.1002   -4.2156   -2.1186 C.ar      1 <0>         0.0825
      6 C6          2.8585   -4.1925    0.2851 C.ar      1 <0>         0.0825
      7 C7         -1.0884   -3.0105   -2.0660 C.2       1 <0>        -0.1238
      8 C8         -1.4226   -2.6968   -3.3367 C.2       1 <0>        -0.1233
      9 C9         -1.8250   -4.1521   -1.4306 C.2       1 <0>         0.2156
     10 C10        -3.0048   -4.3994   -3.4929 C.2       1 <0>        -0.1410
     11 C11         3.4029   -5.8080   -3.8588 C.3       1 <0>         0.2800
     12 C12         2.8055   -5.7508    2.0808 C.3       1 <0>         0.2800
     13 C13        -1.4378   -0.4169   -3.7606 C.3       1 <0>         0.2800
     14 C14        -0.0562   -2.3042   -1.2404 C.3       1 <0>         0.2817
     15 N1         -2.3285   -3.2797   -4.1459 N.2       1 <0>        -0.5700
     16 N2         -2.7397   -4.8285   -2.1190 N.2       1 <0>        -0.5500
     17 N3         -1.5946   -4.5142   -0.2093 N.2       1 <0>        -0.8500
     18 N4         -3.8668   -5.0332   -4.1508 N.pl3     1 <0>        -0.1190
     19 O1          4.6527   -5.2513   -0.7384 O.3       1 <0>        -0.8290
     20 O2          3.7607   -4.5649   -3.2629 O.3       1 <0>        -0.3625
     21 O3          3.2772   -4.5186    1.5445 O.3       1 <0>        -0.3625
     22 O4         -0.7779   -1.6412   -3.9599 O.3       1 <0>        -0.3567
     23 H1          1.5589   -3.2008   -3.2306 H         1 <0>         0.1500
     24 H2          1.1285   -3.1597    1.0484 H         1 <0>         0.1500
     25 H3          4.0003   -5.9663   -4.7600 H         1 <0>         0.0000
     26 H4          2.3394   -5.7997   -4.1106 H         1 <0>         0.0000
     27 H5          3.6006   -6.6133   -3.1473 H         1 <0>         0.0000
     28 H6          3.2112   -5.8908    3.0857 H         1 <0>         0.0000
     29 H7          3.1166   -6.5741    1.4328 H         1 <0>         0.0000
     30 H8          1.7145   -5.7220    2.1316 H         1 <0>         0.0000
     31 H9         -0.8909    0.3799   -4.2706 H         1 <0>         0.0000
     32 H10        -1.4983   -0.2046   -2.6902 H         1 <0>         0.0000
     33 H11        -2.4468   -0.4855   -4.1740 H         1 <0>         0.0000
     34 H12        -0.4716   -2.0989   -0.2489 H         1 <0>         0.0000
     35 H13         0.1511   -1.3293   -1.6915 H         1 <0>         0.0000
     36 H14        -2.2000   -5.3059    0.0235 H         1 <0>         0.4000
     37 H15        -4.1224   -4.7998   -5.1374 H         1 <0>         0.4000
     38 H16        -4.3997   -5.8463   -3.7660 H         1 <0>         0.4000
@<TRIPOS>BOND
     1    1    3 ar
     2    1    5 ar
     3    2    3 ar
     4    2    6 ar
     5    3   14 1
     6    4    5 ar
     7    4    6 ar
     8    4   19 1
     9    5   20 1
    10    6   21 1
    11    7    8 2
    12    7    9 1
    13    7   14 1
    14    8   15 1
    15    8   22 1
    16    9   16 1
    17    9   17 2
    18   10   15 1
    19   10   16 1
    20   10   18 2
    21   11   20 1
    22   12   21 1
    23   13   22 1
    24    1   23 1
    25    2   24 1
    26   11   25 1
    27   11   26 1
    28   11   27 1
    29   12   28 1
    30   12   29 1
    31   12   30 1
    32   13   31 1
    33   13   32 1
    34   13   33 1
    35   14   34 1
    36   14   35 1
    37   17   36 1
    38   18   37 1
    39   18   38 1
