@<TRIPOS>MOLECULE
*****
   46    49     0     0     0
SMALL
USER_CHARGES

@<TRIPOS>ATOM
      1 C1          0.2607    3.1106    5.3722 C.ar      1 <0>        -0.1500
      2 C2         -0.8288    2.2772    5.6353 C.ar      1 <0>        -0.1500
      3 C3          1.5397    2.5807    5.1600 C.ar      1 <0>        -0.1500
      4 C4         -0.6816    0.8874    5.6960 C.ar      1 <0>        -0.1500
      5 C5          6.0998    3.8280    7.5849 C.ar      1 <0>         0.1600
      6 C6          4.8111    4.0485    9.5206 C.ar      1 <0>         0.1600
      7 C7          5.7228    3.3011    8.8033 C.ar      1 <0>        -0.1435
      8 C8          1.7058    1.1866    5.2175 C.ar      1 <0>         0.2272
      9 C9          0.6010    0.3820    5.4816 C.ar      1 <0>        -0.1516
     10 C10         2.4383   -0.8190    5.2049 C.2       1 <0>         0.0065
     11 C11         4.7458    5.6285    7.8877 C.ar      1 <0>         0.7025
     12 C12         6.1131    0.2336    7.5384 C.2       1 <0>         0.0210
     13 C13         5.6434    0.8113    8.6562 C.2       1 <0>        -0.1238
     14 C14         4.4159    0.2263    9.2692 C.2       1 <0>         0.6156
     15 C15         4.5084   -1.3478    7.4390 C.2       1 <0>         0.6510
     16 C16         0.3382   -2.1046    5.6901 C.3       1 <0>         0.2556
     17 C17         4.7169    7.2531    6.1511 C.3       1 <0>         0.2800
     18 C18         6.2696    1.9958    9.3162 C.3       1 <0>         0.2817
     19 C19         3.2928   -2.0213    5.1208 C.3       1 <0>         0.4100
     20 N1          5.6294    4.9935    7.0943 N.ar      1 <0>        -0.6200
     21 N2          4.3000    5.2211    9.0914 N.ar      1 <0>        -0.6200
     22 N3          2.8380    0.4230    5.0483 N.2       1 <0>        -0.5653
     23 N4          5.5726   -0.8521    6.8954 N.2       1 <0>        -0.6210
     24 N5          1.0988   -0.8957    5.4676 N.pl3     1 <0>         0.0476
     25 N6          3.9138   -0.8633    8.5826 N.am      1 <0>        -0.4900
     26 O1          3.9164    0.6885   10.2902 O.2       1 <0>        -0.5700
     27 O2          4.2462    6.8216    7.4197 O.3       1 <0>        -0.3625
     28 S1          3.6961   -2.7227    6.7558 S.3       1 <0>        -0.3710
     29 H1          0.1145    4.1868    5.3299 H         1 <0>         0.1500
     30 H2         -1.8105    2.7162    5.7966 H         1 <0>         0.1500
     31 H3          2.3793    3.2370    4.9555 H         1 <0>         0.1500
     32 H4         -1.5281    0.2411    5.8995 H         1 <0>         0.1500
     33 H5          6.8111    3.3162    6.9444 H         1 <0>         0.1500
     34 H6          4.4515    3.7207   10.4910 H         1 <0>         0.1500
     35 H7          7.0045    0.6327    7.0636 H         1 <0>         0.1500
     36 H8         -0.0344   -2.4515    4.7227 H         1 <0>         0.0000
     37 H9          0.9827   -2.8617    6.1454 H         1 <0>         0.0000
     38 H10        -0.4937   -1.8888    6.3664 H         1 <0>         0.0000
     39 H11         4.2492    8.2064    5.8931 H         1 <0>         0.0000
     40 H12         4.4753    6.5004    5.3965 H         1 <0>         0.0000
     41 H13         5.8007    7.3830    6.1995 H         1 <0>         0.0000
     42 H14         7.3540    1.9662    9.1597 H         1 <0>         0.0000
     43 H15         6.1200    1.9239   10.3992 H         1 <0>         0.0000
     44 H16         2.8150   -2.8178    4.5220 H         1 <0>         0.0000
     45 H17         4.2461   -1.8030    4.6064 H         1 <0>         0.0000
     46 H18         3.0784   -1.3212    8.9341 H         1 <0>         0.3700
@<TRIPOS>BOND
     1    1    2 ar
     2    1    3 ar
     3    2    4 ar
     4    3    8 ar
     5    4    9 ar
     6    5    7 ar
     7    5   20 ar
     8    6    7 ar
     9    6   21 ar
    10    7   18 1
    11    8    9 ar
    12    8   22 1
    13    9   24 1
    14   10   19 1
    15   10   22 2
    16   10   24 1
    17   11   20 ar
    18   11   21 ar
    19   11   27 1
    20   12   13 2
    21   12   23 1
    22   13   14 1
    23   13   18 1
    24   14   25 am
    25   14   26 2
    26   15   23 2
    27   15   25 1
    28   15   28 1
    29   16   24 1
    30   17   27 1
    31   19   28 1
    32    1   29 1
    33    2   30 1
    34    3   31 1
    35    4   32 1
    36    5   33 1
    37    6   34 1
    38   12   35 1
    39   16   36 1
    40   16   37 1
    41   16   38 1
    42   17   39 1
    43   17   40 1
    44   17   41 1
    45   18   42 1
    46   18   43 1
    47   19   44 1
    48   19   45 1
    49   25   46 1
