@<TRIPOS>MOLECULE
*****
   31    32     0     0     0
SMALL
USER_CHARGES

@<TRIPOS>ATOM
      1 C1         -3.3535    1.8971    5.4596 C.2       1 <0>        -0.1500
      2 C2         -1.9436    1.8063    5.3750 C.2       1 <0>        -0.1500
      3 C3          1.8851   -1.0363   -0.1124 C.ar      1 <0>        -0.1500
      4 C4          1.7997   -1.0786    2.6757 C.ar      1 <0>        -0.1500
      5 C5         -3.8491    0.8649    4.6975 C.2       1 <0>        -0.0100
      6 C6          0.8066   -0.4630    0.5610 C.ar      1 <0>         0.0862
      7 C7          0.7638   -0.4841    1.9551 C.ar      1 <0>         0.1000
      8 C8          2.9210   -1.6309    0.6081 C.ar      1 <0>        -0.0090
      9 C9          2.8783   -1.6520    2.0022 C.ar      1 <0>         0.1770
     10 C10        -1.6782    0.7248    4.5675 C.2       1 <0>        -0.0400
     11 C11        -0.2597    0.1505   -0.2205 C.2       1 <0>         0.6338
     12 C12        -0.4053    0.0935    4.0823 C.3       1 <0>         0.5491
     13 N1          3.9334   -2.1106   -1.8484 N.2       1 <0>        -0.6901
     14 N2         -0.3194    0.0914    2.6559 N.pl3     1 <0>        -0.8691
     15 O1         -1.4439    0.2177    0.1184 O.2       1 <0>        -0.5700
     16 O2          4.2571   -3.7527    0.1040 O.2       1 <0>        -0.6500
     17 O3          5.4403   -1.6054    0.1736 O.2       1 <0>        -0.6500
     18 O4         -2.8344    0.1454    4.1504 O.3       1 <0>        -0.2800
     19 O5          0.1899    0.6603   -1.3986 O.3       1 <0>        -0.6500
     20 S1          4.2498   -2.3351   -0.2914 S.o2      1 <0>         0.8491
     21 Cl1         4.1349   -2.3756    2.9403 Cl        1 <0>        -0.1770
     22 H1         -3.9356    2.6242    6.0070 H         1 <0>         0.1500
     23 H2         -1.2144    2.4507    5.8451 H         1 <0>         0.1500
     24 H3          1.9175   -1.0191   -1.1997 H         1 <0>         0.1500
     25 H4          1.7615   -1.0924    3.7631 H         1 <0>         0.1500
     26 H5         -4.8458    0.5254    4.4568 H         1 <0>         0.1500
     27 H6          0.4656    0.6319    4.4718 H         1 <0>         0.0000
     28 H7         -0.3260   -0.9438    4.4240 H         1 <0>         0.0000
     29 H8          4.6919   -2.5117   -2.4111 H         1 <0>         0.1500
     30 H9         -1.0445    0.5076    2.1046 H         1 <0>         0.4000
     31 H10        -0.5205    1.0766   -1.9319 H         1 <0>         0.5000
@<TRIPOS>BOND
     1    1    2 1
     2    1    5 2
     3    2   10 2
     4    3    6 ar
     5    3    8 ar
     6    4    7 ar
     7    4    9 ar
     8    5   18 1
     9    6    7 ar
    10    6   11 1
    11    7   14 1
    12    8    9 ar
    13    8   20 1
    14    9   21 1
    15   10   12 1
    16   10   18 1
    17   11   15 2
    18   11   19 1
    19   12   14 1
    20   13   20 1
    21   16   20 2
    22   17   20 2
    23    1   22 1
    24    2   23 1
    25    3   24 1
    26    4   25 1
    27    5   26 1
    28   12   27 1
    29   12   28 1
    30   13   29 1
    31   14   30 1
    32   19   31 1
