@<TRIPOS>MOLECULE
*****
   41    42     0     0     0
SMALL
USER_CHARGES

@<TRIPOS>ATOM
      1 C1         -0.0817   -3.6374    1.7716 C.ar      1 <0>        -0.1500
      2 C2         -1.4481   -2.8446    3.5996 C.ar      1 <0>        -0.1500
      3 C3         -1.0429   -2.7567    2.2677 C.ar      1 <0>        -0.1435
      4 C4          0.4741   -4.6061    2.6073 C.ar      1 <0>        -0.1435
      5 C5         -0.8922   -3.8132    4.4353 C.ar      1 <0>        -0.1435
      6 C6          0.0689   -4.6940    3.9391 C.ar      1 <0>         0.0825
      7 C7         -4.1433   -1.7394    1.5469 C.2       1 <0>         0.0210
      8 C8         -3.0173   -2.0683    0.9058 C.2       1 <0>        -0.1238
      9 C9         -3.1997   -2.8429   -0.3484 C.2       1 <0>         0.2156
     10 C10        -5.4452   -2.7514    0.0029 C.2       1 <0>         0.0100
     11 C11         1.5019   -5.5398    2.0578 C.3       1 <0>         0.1435
     12 C12        -2.4140   -2.8066    6.1721 C.3       1 <0>         0.0000
     13 C13        -0.1447   -3.6694    6.8368 C.3       1 <0>         0.0000
     14 C14        -1.9807   -5.2523    6.2846 C.3       1 <0>         0.0000
     15 C15        -1.6434   -1.7112    1.3657 C.3       1 <0>         0.2817
     16 C16        -1.3385   -3.8914    5.8582 C.3       1 <0>         0.1435
     17 N1         -4.4286   -3.1589   -0.7567 N.2       1 <0>        -0.5600
     18 N2         -5.3921   -2.0750    1.1086 N.2       1 <0>        -0.6210
     19 N3         -6.6343   -3.1038   -0.4686 N.2       1 <0>        -0.9300
     20 N4         -2.1952   -3.2269   -1.0680 N.2       1 <0>        -0.8500
     21 O1          0.6131   -5.6407    4.7563 O.3       1 <0>        -0.5325
     22 H1          0.2336   -3.5689    0.7331 H         1 <0>         0.1500
     23 H2         -2.1958   -2.1557    3.9862 H         1 <0>         0.1500
     24 H3         -4.1109   -1.1735    2.4719 H         1 <0>         0.1500
     25 H4          2.5058   -5.1189    2.1875 H         1 <0>         0.0000
     26 H5          1.4632   -6.5133    2.5621 H         1 <0>         0.0000
     27 H6          1.3367   -5.7270    0.9895 H         1 <0>         0.0000
     28 H7         -2.7592   -2.8423    7.2120 H         1 <0>         0.0000
     29 H8         -2.0284   -1.7961    5.9976 H         1 <0>         0.0000
     30 H9         -3.2891   -2.9410    5.5252 H         1 <0>         0.0000
     31 H10        -0.4664   -3.7257    7.8824 H         1 <0>         0.0000
     32 H11         0.6520   -4.4112    6.7066 H         1 <0>         0.0000
     33 H12         0.2948   -2.6771    6.6808 H         1 <0>         0.0000
     34 H13        -2.2917   -5.2604    7.3362 H         1 <0>         0.0000
     35 H14        -2.8720   -5.4688    5.6840 H         1 <0>         0.0000
     36 H15        -1.2710   -6.0773    6.1525 H         1 <0>         0.0000
     37 H16        -1.6747   -0.7494    1.8913 H         1 <0>         0.0000
     38 H17        -1.0006   -1.5544    0.4918 H         1 <0>         0.0000
     39 H18        -6.8822   -2.4694   -1.2309 H         1 <0>         0.1500
     40 H19        -2.5442   -3.7416   -1.8810 H         1 <0>         0.4000
     41 H20         1.2612   -6.1707    4.2674 H         1 <0>         0.4500
@<TRIPOS>BOND
     1    1    3 ar
     2    1    4 ar
     3    2    3 ar
     4    2    5 ar
     5    3   15 1
     6    4    6 ar
     7    4   11 1
     8    5    6 ar
     9    5   16 1
    10    6   21 1
    11    7    8 2
    12    7   18 1
    13    8    9 1
    14    8   15 1
    15    9   17 1
    16    9   20 2
    17   10   17 1
    18   10   18 2
    19   10   19 1
    20   12   16 1
    21   13   16 1
    22   14   16 1
    23    1   22 1
    24    2   23 1
    25    7   24 1
    26   11   25 1
    27   11   26 1
    28   11   27 1
    29   12   28 1
    30   12   29 1
    31   12   30 1
    32   13   31 1
    33   13   32 1
    34   13   33 1
    35   14   34 1
    36   14   35 1
    37   14   36 1
    38   15   37 1
    39   15   38 1
    40   19   39 1
    41   20   40 1
    42   21   41 1
