@<TRIPOS>MOLECULE
*****
   25    26     0     0     0
SMALL
USER_CHARGES

@<TRIPOS>ATOM
      1 C1          0.8280    1.9270    1.4140 C.ar      1 <0>        -0.1500
      2 C2         -0.5959    2.0086    1.0769 C.ar      1 <0>        -0.1500
      3 C3          1.6000    0.9083    0.9954 C.ar      1 <0>         0.1390
      4 C4          1.4880   -1.1409   -0.2990 C.2       1 <0>         0.3256
      5 C5         -1.2707    1.1023    0.3342 C.ar      1 <0>        -0.1238
      6 C6          0.3868   -1.8346   -1.0262 C.2       1 <0>         0.3034
      7 C7         -0.4909   -0.0445   -0.1607 C.ar      1 <0>         0.7146
      8 C8          0.5594   -2.9794   -1.6853 C.2       1 <0>        -0.0733
      9 C9          2.2449   -4.6339   -2.2448 C.3       1 <0>         0.2800
     10 C10        -2.7213    1.2004   -0.0019 C.3       1 <0>         1.1582
     11 N1         -0.7965   -1.0682   -0.8751 N.pl3     1 <0>        -0.0890
     12 N2          1.0132   -0.0786    0.2271 N.ar      1 <0>        -0.0180
     13 O1         -0.3584   -3.6028   -2.3192 O.3       1 <0>        -0.8500
     14 O2          1.9143   -3.4140   -1.5826 O.3       1 <0>        -0.3567
     15 F1         -3.2716    2.3120    0.5323 F         1 <0>        -0.3400
     16 F2         -2.9119    1.2512   -1.3380 F         1 <0>        -0.3400
     17 F3         -3.4084    0.1371    0.4688 F         1 <0>        -0.3400
     18 H1          1.2442    2.7251    2.0195 H         1 <0>         0.1500
     19 H2         -1.1145    2.8785    1.4716 H         1 <0>         0.1500
     20 H3          2.6529    0.8392    1.2392 H         1 <0>         0.1500
     21 H4          2.5206   -1.4983   -0.2388 H         1 <0>         0.0600
     22 H5          3.3038   -4.8566   -2.0924 H         1 <0>         0.0000
     23 H6          2.0314   -4.5394   -3.3124 H         1 <0>         0.0000
     24 H7          1.6409   -5.4415   -1.8245 H         1 <0>         0.0000
     25 H8         -1.6982   -1.3181   -1.2744 H         1 <0>         0.4000
@<TRIPOS>BOND
     1    1    2 ar
     2    1    3 ar
     3    2    5 ar
     4    3   12 ar
     5    4    6 1
     6    4   12 2
     7    5    7 ar
     8    5   10 1
     9    6    8 2
    10    6   11 1
    11    7   11 2
    12    7   12 ar
    13    8   13 1
    14    8   14 1
    15    9   14 1
    16   10   15 1
    17   10   16 1
    18   10   17 1
    19    1   18 1
    20    2   19 1
    21    3   20 1
    22    4   21 1
    23    9   22 1
    24    9   23 1
    25    9   24 1
    26   11   25 1
