@<TRIPOS>MOLECULE
*****
   19    20     0     0     0
SMALL
USER_CHARGES

@<TRIPOS>ATOM
      1 C1         -0.3862    0.1803    1.0001 C.ar      1 <0>        -0.1500
      2 C2         -1.5128   -0.5251    1.4379 C.ar      1 <0>        -0.1500
      3 C3         -0.2252    1.3626    3.1155 C.ar      1 <0>        -0.1500
      4 C4         -1.3539    0.6571    3.5562 C.ar      1 <0>         0.3330
      5 C5          0.2482    1.1093    1.8244 C.ar      1 <0>         0.0825
      6 C6         -1.9840   -0.2678    2.7329 C.ar      1 <0>         0.0400
      7 C7         -3.0087    0.0020    4.9658 C.2       1 <0>         0.1940
      8 C8         -3.8185   -0.0515    6.1903 C.3       1 <0>         0.1800
      9 N1         -1.9586    0.7732    4.7874 N.pl3     1 <0>        -0.1170
     10 O1          1.3445    1.7783    1.3682 O.3       1 <0>        -0.5325
     11 S1         -3.3270   -0.9472    3.5801 S.3       1 <0>        -0.0800
     12 H1         -0.0043   -0.0051   -0.0013 H         1 <0>         0.1500
     13 H2         -2.0002   -1.2462    0.7896 H         1 <0>         0.1500
     14 H3          0.2688    2.0856    3.7577 H         1 <0>         0.1500
     15 H4         -4.6494    0.6761    6.1576 H         1 <0>         0.0000
     16 H5         -4.2623   -1.0506    6.3581 H         1 <0>         0.0000
     17 H6         -3.2246    0.1675    7.0975 H         1 <0>         0.0000
     18 H7         -1.6855    1.3800    5.5579 H         1 <0>         0.4500
     19 H8          1.5541    1.4992    0.4633 H         1 <0>         0.4500
@<TRIPOS>BOND
     1    1    2 ar
     2    1    5 ar
     3    2    6 ar
     4    3    4 ar
     5    3    5 ar
     6    4    6 ar
     7    4    9 1
     8    5   10 1
     9    6   11 1
    10    7    8 1
    11    7    9 2
    12    7   11 1
    13    1   12 1
    14    2   13 1
    15    3   14 1
    16    8   15 1
    17    8   16 1
    18    8   17 1
    19    9   18 1
    20   10   19 1
