@<TRIPOS>MOLECULE
*****
   41    42     0     0     0
SMALL
USER_CHARGES

@<TRIPOS>ATOM
      1 C1         -3.4941   -1.5534    0.3788 C.ar      1 <0>        -0.1500
      2 C2         -4.7192    0.5226    0.5409 C.ar      1 <0>        -0.1500
      3 C3         -3.6303   -0.2029    0.0576 C.ar      1 <0>        -0.1435
      4 C4         -4.4470   -2.1785    1.1832 C.ar      1 <0>        -0.1435
      5 C5         -5.6720   -0.1024    1.3454 C.ar      1 <0>        -0.1435
      6 C6         -5.5359   -1.4530    1.6666 C.ar      1 <0>        -0.1710
      7 C7         -3.7290    1.7553   -2.6654 C.2       1 <0>         0.0210
      8 C8         -3.0705    0.6666   -2.2135 C.2       1 <0>        -0.1238
      9 C9         -2.8149   -0.4054   -3.2438 C.2       1 <0>         0.4856
     10 C10        -3.9498    1.0473   -4.8094 C.2       1 <0>         0.2800
     11 C11        -4.2453   -3.6312    1.4935 C.3       1 <0>         0.1435
     12 C12        -6.7052    2.1949    1.3168 C.3       1 <0>         0.0000
     13 C13        -6.8530    0.7754    3.3903 C.3       1 <0>         0.0000
     14 C14        -8.2331    0.2350    1.3942 C.3       1 <0>         0.0000
     15 C15        -2.6016    0.4721   -0.8109 C.3       1 <0>         0.2817
     16 C16        -6.8190    0.7302    1.8338 C.3       1 <0>         0.1435
     17 N1         -4.1893    1.9952   -3.9491 N.2       1 <0>        -0.6210
     18 N2         -4.3422    1.1629   -6.0682 N.2       1 <0>        -0.9300
     19 N3         -2.1898   -1.4980   -2.9244 N.2       1 <0>        -0.8500
     20 N4         -3.2914   -0.1243   -4.5119 N.pl3     1 <0>        -0.5000
     21 O1         -6.4132   -2.0285    2.4076 O.3       1 <0>        -0.8290
     22 H1         -2.6440   -2.1169    0.0010 H         1 <0>         0.1500
     23 H2         -4.8231    1.5756    0.2892 H         1 <0>         0.1500
     24 H3         -3.9436    2.5631   -1.9711 H         1 <0>         0.1500
     25 H4         -3.6546   -3.7400    2.4081 H         1 <0>         0.0000
     26 H5         -5.2059   -4.1387    1.6297 H         1 <0>         0.0000
     27 H6         -3.7250   -4.1372    0.6734 H         1 <0>         0.0000
     28 H7         -7.5332    2.8260    1.6603 H         1 <0>         0.0000
     29 H8         -5.7784    2.6713    1.6548 H         1 <0>         0.0000
     30 H9         -6.7038    2.2136    0.2205 H         1 <0>         0.0000
     31 H10        -7.6880    1.3816    3.7582 H         1 <0>         0.0000
     32 H11        -6.9596   -0.2205    3.8362 H         1 <0>         0.0000
     33 H12        -5.9285    1.2179    3.7796 H         1 <0>         0.0000
     34 H13        -9.0376    0.8755    1.7754 H         1 <0>         0.0000
     35 H14        -8.3224    0.2228    0.3016 H         1 <0>         0.0000
     36 H15        -8.4262   -0.7787    1.7641 H         1 <0>         0.0000
     37 H16        -2.3388    1.4443   -0.3769 H         1 <0>         0.0000
     38 H17        -1.6743   -0.1127   -0.8184 H         1 <0>         0.0000
     39 H18        -5.3172    1.4733   -6.0805 H         1 <0>         0.1500
     40 H19        -2.1177   -2.0906   -3.7541 H         1 <0>         0.4000
     41 H20        -3.1505   -0.8070   -5.2507 H         1 <0>         0.4000
@<TRIPOS>BOND
     1    1    3 ar
     2    1    4 ar
     3    2    3 ar
     4    2    5 ar
     5    3   15 1
     6    4    6 ar
     7    4   11 1
     8    5    6 ar
     9    5   16 1
    10    6   21 1
    11    7    8 2
    12    7   17 1
    13    8    9 1
    14    8   15 1
    15    9   19 2
    16    9   20 1
    17   10   17 2
    18   10   18 1
    19   10   20 1
    20   12   16 1
    21   13   16 1
    22   14   16 1
    23    1   22 1
    24    2   23 1
    25    7   24 1
    26   11   25 1
    27   11   26 1
    28   11   27 1
    29   12   28 1
    30   12   29 1
    31   12   30 1
    32   13   31 1
    33   13   32 1
    34   13   33 1
    35   14   34 1
    36   14   35 1
    37   14   36 1
    38   15   37 1
    39   15   38 1
    40   18   39 1
    41   19   40 1
    42   20   41 1
