@<TRIPOS>MOLECULE
*****
   39    40     0     0     0
SMALL
USER_CHARGES

@<TRIPOS>ATOM
      1 C1          3.1665   -0.1896    1.3173 C.ar      1 <0>        -0.1500
      2 C2          3.0921    0.0417    3.7210 C.ar      1 <0>        -0.1500
      3 C3          2.4363   -0.0006    2.4906 C.ar      1 <0>        -0.1435
      4 C4          4.5524   -0.3365    1.3743 C.ar      1 <0>         0.0825
      5 C5          4.4780   -0.1052    3.7780 C.ar      1 <0>         0.0825
      6 C6          5.2082   -0.2943    2.6047 C.ar      1 <0>         0.0825
      7 C7          0.2681   -1.0204    1.7935 C.2       1 <0>        -0.1682
      8 C8         -0.2458   -1.0326    0.5418 C.2       1 <0>        -0.1233
      9 C9          0.1428   -2.2948    2.5854 C.2       1 <0>         0.1190
     10 C10        -0.9868   -3.1655    0.5669 C.2       1 <0>         0.5590
     11 C11         4.5070   -0.5513   -0.9937 C.3       1 <0>         0.2800
     12 C12         4.2862    0.1350    6.1363 C.3       1 <0>         0.2800
     13 C13        -1.2638    0.9618   -0.0613 C.3       1 <0>         0.2800
     14 C14         0.9430    0.1581    2.4293 C.3       1 <0>         0.2817
     15 N1         -0.8691   -2.0314   -0.1255 N.2       1 <0>        -0.5800
     16 N2          0.6689   -2.3746    3.9468 N.2       1 <0>        -0.9200
     17 N3         -1.5635   -4.1910    0.0341 N.2       1 <0>        -0.8500
     18 N4         -0.4231   -3.2807    2.0472 N.pl3     1 <0>        -0.0480
     19 O1          6.5629   -0.4378    2.6604 O.3       1 <0>        -0.5325
     20 O2          5.2538   -0.5206    0.2210 O.3       1 <0>        -0.3625
     21 O3          5.1063   -0.0618    4.9861 O.3       1 <0>        -0.3625
     22 O4         -0.1553    0.1156   -0.2292 O.3       1 <0>        -0.3567
     23 H1          2.6576   -0.2227    0.3569 H         1 <0>         0.1500
     24 H2          2.5251    0.1890    4.6371 H         1 <0>         0.1500
     25 H3          5.1862   -0.7041   -1.8361 H         1 <0>         0.0000
     26 H4          3.9664    0.3908   -1.1141 H         1 <0>         0.0000
     27 H5          3.7922   -1.3765   -0.9507 H         1 <0>         0.0000
     28 H6          4.9115    0.1497    7.0323 H         1 <0>         0.0000
     29 H7          3.5525   -0.6722    6.2042 H         1 <0>         0.0000
     30 H8          3.7656    1.0909    6.0423 H         1 <0>         0.0000
     31 H9         -1.1442    1.8489   -0.6881 H         1 <0>         0.0000
     32 H10        -1.3454    1.2529    0.9889 H         1 <0>         0.0000
     33 H11        -2.1681    0.4265   -0.3604 H         1 <0>         0.0000
     34 H12         0.5432    0.2955    3.4384 H         1 <0>         0.0000
     35 H13         0.6780    1.0602    1.8706 H         1 <0>         0.0000
     36 H14        -0.1459   -2.6139    4.4513 H         1 <0>         0.1500
     37 H15        -1.5626   -4.9642    0.7061 H         1 <0>         0.4000
     38 H16        -0.5381   -4.1722    2.5308 H         1 <0>         0.4000
     39 H17         6.9228   -0.5602    1.7683 H         1 <0>         0.4500
@<TRIPOS>BOND
     1    1    3 ar
     2    1    4 ar
     3    2    3 ar
     4    2    5 ar
     5    3   14 1
     6    4    6 ar
     7    4   20 1
     8    5    6 ar
     9    5   21 1
    10    6   19 1
    11    7    8 2
    12    7    9 1
    13    7   14 1
    14    8   15 1
    15    8   22 1
    16    9   16 1
    17    9   18 2
    18   10   15 1
    19   10   17 2
    20   10   18 1
    21   11   20 1
    22   12   21 1
    23   13   22 1
    24    1   23 1
    25    2   24 1
    26   11   25 1
    27   11   26 1
    28   11   27 1
    29   12   28 1
    30   12   29 1
    31   12   30 1
    32   13   31 1
    33   13   32 1
    34   13   33 1
    35   14   34 1
    36   14   35 1
    37   16   36 1
    38   17   37 1
    39   18   38 1
    40   19   39 1
