@<TRIPOS>MOLECULE
*****
   41    43     0     0     0
SMALL
USER_CHARGES

@<TRIPOS>ATOM
      1 C1          3.4430    0.7501   -2.3639 C.ar      1 <0>        -0.1500
      2 C2          5.3062   -0.7879   -2.3645 C.ar      1 <0>        -0.1500
      3 C3          2.6594   -0.1994   -1.7082 C.ar      1 <0>        -0.1500
      4 C4          4.5226   -1.7374   -1.7088 C.ar      1 <0>        -0.1500
      5 C5          3.3170   -2.2171    1.6160 C.ar      1 <0>         0.1600
      6 C6          4.7664    0.4558   -2.6922 C.ar      1 <0>        -0.1435
      7 C7          3.1992   -1.4431   -1.3806 C.ar      1 <0>        -0.1435
      8 C8          2.2075   -2.2403    0.7956 C.ar      1 <0>        -0.1435
      9 C9          0.9962   -2.0343    1.4237 C.ar      1 <0>         0.4100
     10 C10         2.0214   -1.8214    3.4413 C.ar      1 <0>         0.7200
     11 C11        -0.9954   -0.8352    0.6168 C.3       1 <0>         0.3691
     12 C12        -0.8868   -3.3046    0.4261 C.3       1 <0>         0.3691
     13 C13        -1.8793   -0.8440   -0.6252 C.3       1 <0>         0.2800
     14 C14        -1.7771   -3.1816   -0.8055 C.3       1 <0>         0.2800
     15 C15         5.6049    1.4704   -3.3932 C.3       1 <0>         0.1435
     16 C16         2.3465   -2.4749   -0.6657 C.3       1 <0>         0.2870
     17 N1          3.2601   -2.0096    2.9479 N.ar      1 <0>        -0.6200
     18 N2          0.8659   -1.8212    2.7496 N.ar      1 <0>        -0.6200
     19 N3         -0.1641   -2.0466    0.6428 N.pl3     1 <0>        -0.8382
     20 N4          1.9233   -1.6011    4.8326 N.pl3     1 <0>        -0.9000
     21 O1         -2.6395   -2.0505   -0.6882 O.3       1 <0>        -0.5600
     22 H1          3.0140    1.7164   -2.6159 H         1 <0>         0.1500
     23 H2          6.3368   -1.0251   -2.6155 H         1 <0>         0.1500
     24 H3          1.6299    0.0391   -1.4550 H         1 <0>         0.1500
     25 H4          4.9509   -2.7041   -1.4574 H         1 <0>         0.1500
     26 H5          4.3164   -2.3683    1.2201 H         1 <0>         0.1500
     27 H6         -0.3696    0.0650    0.6140 H         1 <0>         0.0000
     28 H7         -1.6253   -0.8140    1.5152 H         1 <0>         0.0000
     29 H8         -1.5063   -3.5190    1.3066 H         1 <0>         0.0000
     30 H9         -0.1866   -4.1372    0.2893 H         1 <0>         0.0000
     31 H10        -2.5850   -0.0081   -0.5830 H         1 <0>         0.0000
     32 H11        -1.2877   -0.7291   -1.5414 H         1 <0>         0.0000
     33 H12        -1.1839   -3.1034   -1.7248 H         1 <0>         0.0000
     34 H13        -2.4072   -4.0723   -0.8961 H         1 <0>         0.0000
     35 H14         6.1277    2.1030   -2.6653 H         1 <0>         0.0000
     36 H15         6.3529    0.9920   -4.0388 H         1 <0>         0.0000
     37 H16         4.9940    2.1149   -4.0388 H         1 <0>         0.0000
     38 H17         1.3542   -2.5115   -1.1527 H         1 <0>         0.0000
     39 H18         2.7670   -3.4787   -0.8628 H         1 <0>         0.0000
     40 H19         2.7512   -1.6404    5.3906 H         1 <0>         0.4000
     41 H20         1.0192   -1.5039    5.2468 H         1 <0>         0.4000
@<TRIPOS>BOND
     1    1    3 ar
     2    1    6 ar
     3    2    4 ar
     4    2    6 ar
     5    3    7 ar
     6    4    7 ar
     7    5    8 ar
     8    5   17 ar
     9    6   15 1
    10    7   16 1
    11    8    9 ar
    12    8   16 1
    13    9   18 ar
    14    9   19 1
    15   10   17 ar
    16   10   18 ar
    17   10   20 1
    18   11   13 1
    19   11   19 1
    20   12   14 1
    21   12   19 1
    22   13   21 1
    23   14   21 1
    24    1   22 1
    25    2   23 1
    26    3   24 1
    27    4   25 1
    28    5   26 1
    29   11   27 1
    30   11   28 1
    31   12   29 1
    32   12   30 1
    33   13   31 1
    34   13   32 1
    35   14   33 1
    36   14   34 1
    37   15   35 1
    38   15   36 1
    39   15   37 1
    40   16   38 1
    41   16   39 1
    42   20   40 1
    43   20   41 1
