@<TRIPOS>MOLECULE
*****
   26    28     0     0     0
SMALL
USER_CHARGES

@<TRIPOS>ATOM
      1 C1          5.4574    1.2024    0.9301 C.ar      1 <0>        -0.1500
      2 C2          4.7622    0.3522    0.0702 C.ar      1 <0>        -0.1500
      3 C3          4.7811    1.8609    1.9571 C.ar      1 <0>        -0.1500
      4 C4          3.3907    0.1605    0.2373 C.ar      1 <0>        -0.1500
      5 C5          3.4096    1.6692    2.1242 C.ar      1 <0>        -0.1500
      6 C6          2.7144    0.8190    1.2643 C.ar      1 <0>        -0.1435
      7 C7         -0.4375    1.3042   -0.3237 C.2       1 <0>        -0.1500
      8 C8         -0.6330   -0.0793   -0.5651 C.2       1 <0>         0.0144
      9 C9          0.4401    1.6361    0.6350 C.2       1 <0>         0.0018
     10 C10        -1.3638   -0.8496   -1.3728 C.2       1 <0>         0.2710
     11 C11         0.0757   -1.0611    0.2373 C.2       1 <0>         0.6466
     12 C12         1.2401    0.6136    1.4443 C.3       1 <0>         0.5277
     13 N1         -1.1330   -2.1847   -1.1018 N.2       1 <0>        -0.1710
     14 N2          0.9241   -0.8219    1.1682 N.2       1 <0>        -0.6960
     15 N3         -0.3039   -2.3160   -0.1622 N.2       1 <0>        -0.2110
     16 N4         -2.2216   -0.3713   -2.3218 N.pl3     1 <0>        -0.9000
     17 Cl1         0.6682    3.3024    1.0529 Cl        1 <0>        -0.1400
     18 H1          6.5255    1.3505    0.8007 H         1 <0>         0.1500
     19 H2          5.2888   -0.1615   -0.7289 H         1 <0>         0.1500
     20 H3          5.3223    2.5220    2.6275 H         1 <0>         0.1500
     21 H4          2.8571   -0.5037   -0.4376 H         1 <0>         0.1500
     22 H5          2.8910    2.1865    2.9270 H         1 <0>         0.1500
     23 H6         -1.0034    2.0394   -0.8829 H         1 <0>         0.1500
     24 H7          1.0184    0.7784    2.5056 H         1 <0>         0.0000
     25 H8         -2.3146    0.6149   -2.4253 H         1 <0>         0.4000
     26 H9         -2.7263   -1.0242   -2.8796 H         1 <0>         0.4000
@<TRIPOS>BOND
     1    1    2 ar
     2    1    3 ar
     3    2    4 ar
     4    3    5 ar
     5    4    6 ar
     6    5    6 ar
     7    6   12 1
     8    7    8 1
     9    7    9 2
    10    8   10 2
    11    8   11 1
    12    9   12 1
    13    9   17 1
    14   10   13 1
    15   10   16 1
    16   11   14 2
    17   11   15 1
    18   12   14 1
    19   13   15 2
    20    1   18 1
    21    2   19 1
    22    3   20 1
    23    4   21 1
    24    5   22 1
    25    7   23 1
    26   12   24 1
    27   16   25 1
    28   16   26 1
