@<TRIPOS>MOLECULE
*****
   32    33     0     0     0
SMALL
USER_CHARGES

@<TRIPOS>ATOM
      1 C1         -5.1120    1.8884    4.8584 C.2       1 <0>        -0.1500
      2 C2         -4.6917    0.8050    4.0504 C.2       1 <0>        -0.1500
      3 C3         -4.4896    3.0059    4.3528 C.2       1 <0>        -0.0100
      4 C4         -3.8427    1.3378    3.1084 C.2       1 <0>        -0.0400
      5 C5          0.5439    0.7227    1.1124 C.2       1 <0>        -0.1356
      6 C6         -0.6679   -0.5009   -1.1723 C.2       1 <0>        -0.2882
      7 C7          0.6500   -0.2541   -1.1215 C.2       1 <0>        -0.0170
      8 C8          1.2635    0.3341    0.0504 C.2       1 <0>         0.1400
      9 C9         -0.9281    0.5356    1.1136 C.2       1 <0>         0.3746
     10 C10        -2.1614   -1.5259    0.3909 C.2       1 <0>         0.6590
     11 C11        -1.6005   -0.2053   -0.0364 C.3       1 <0>         0.2602
     12 C12        -3.0648    0.7392    1.9701 C.3       1 <0>         0.4260
     13 N1         -1.6390    0.9918    2.0972 N.2       1 <0>        -0.6960
     14 N2          2.2490    0.8210   -3.0377 N.pl3     1 <0>        -0.9780
     15 O1         -1.7019   -2.2297    1.2780 O.2       1 <0>        -0.5700
     16 O2          2.6491   -1.5402   -2.1322 O.2       1 <0>        -0.6500
     17 O3          0.6304   -1.0945   -3.5636 O.2       1 <0>        -0.6500
     18 O4         -3.7142    2.6789    3.2858 O.3       1 <0>        -0.2800
     19 O5         -3.2550   -1.8422   -0.3449 O.3       1 <0>        -0.6500
     20 S1          1.5585   -0.6664   -2.5309 S.o2      1 <0>         1.4550
     21 Cl1         2.9811    0.5687    0.0965 Cl        1 <0>        -0.1400
     22 H1         -5.7839    1.8584    5.7038 H         1 <0>         0.1500
     23 H2         -4.9741   -0.2338    4.1457 H         1 <0>         0.1500
     24 H3         -4.4943    4.0513    4.6244 H         1 <0>         0.1500
     25 H4          0.9930    1.1796    1.9879 H         1 <0>         0.1500
     26 H5         -1.1159   -0.9312   -2.0656 H         1 <0>         0.1500
     27 H6         -2.4255    0.4151   -0.4052 H         1 <0>         0.0000
     28 H7         -3.2412   -0.3416    1.9202 H         1 <0>         0.0000
     29 H8         -3.4167    1.1509    1.0174 H         1 <0>         0.0000
     30 H9          2.9731    1.2262   -2.4311 H         1 <0>         0.4200
     31 H10         1.6010    1.5298   -3.4050 H         1 <0>         0.4200
     32 H11        -3.6367   -2.7064   -0.0810 H         1 <0>         0.5000
@<TRIPOS>BOND
     1    1    2 1
     2    1    3 2
     3    2    4 2
     4    3   18 1
     5    4   12 1
     6    4   18 1
     7    5    8 2
     8    5    9 1
     9    6    7 2
    10    6   11 1
    11    7    8 1
    12    7   20 1
    13    8   21 1
    14    9   11 1
    15    9   13 2
    16   10   11 1
    17   10   15 2
    18   10   19 1
    19   12   13 1
    20   14   20 1
    21   16   20 2
    22   17   20 2
    23    1   22 1
    24    2   23 1
    25    3   24 1
    26    5   25 1
    27    6   26 1
    28   11   27 1
    29   12   28 1
    30   12   29 1
    31   14   30 1
    32   14   31 1
    33   19   32 1
