@<TRIPOS>MOLECULE
*****
   31    32     0     0     0
SMALL
USER_CHARGES

@<TRIPOS>ATOM
      1 C1          1.8851   -1.0363   -0.1124 C.ar      1 <0>        -0.1500
      2 C2          0.8066   -0.4630    0.5610 C.ar      1 <0>        -0.1500
      3 C3         -0.1706    2.2598    5.9414 C.ar      1 <0>        -0.1500
      4 C4          2.9210   -1.6309    0.6081 C.ar      1 <0>        -0.1500
      5 C5          0.7638   -0.4841    1.9551 C.ar      1 <0>        -0.1500
      6 C6         -0.9044    1.1076    5.6594 C.ar      1 <0>        -0.1500
      7 C7          1.1875    2.3158    5.6282 C.ar      1 <0>        -0.1500
      8 C8          2.8783   -1.6520    2.0022 C.ar      1 <0>        -0.1435
      9 C9          1.7997   -1.0786    2.6757 C.ar      1 <0>         0.3640
     10 C10         1.0780    0.0674    4.7510 C.ar      1 <0>         0.3640
     11 C11        -0.2801    0.0114    5.0642 C.ar      1 <0>         0.1770
     12 C12         1.8118    1.2196    5.0330 C.ar      1 <0>         0.1770
     13 C13         3.6098   -3.6671    3.2356 C.2       1 <0>         0.6590
     14 C14         4.0002   -2.2948    2.7503 C.3       1 <0>         0.2045
     15 N1          1.7368   -1.0896    4.1226 N.4       1 <0>        -0.6280
     16 O1          2.4918   -4.1478    3.0997 O.2       1 <0>        -0.5700
     17 O2          4.6227   -4.3083    3.8707 O.3       1 <0>        -0.6500
     18 Cl1        -1.2280   -1.3940    4.7328 Cl        1 <0>        -0.1770
     19 Cl2         3.4949    1.3342    4.6618 Cl        1 <0>        -0.1770
     20 H1          1.9192   -1.0194   -1.1978 H         1 <0>         0.1500
     21 H2          0.0007    0.0006   -0.0002 H         1 <0>         0.1500
     22 H3         -0.6569    3.1135    6.4051 H         1 <0>         0.1500
     23 H4          3.7574   -2.0740    0.0741 H         1 <0>         0.1500
     24 H5         -0.0812   -0.0343    2.4699 H         1 <0>         0.1500
     25 H6         -1.9619    1.0806    5.9097 H         1 <0>         0.1500
     26 H7          1.7446    3.2214    5.8546 H         1 <0>         0.1500
     27 H8          4.3292   -1.6812    3.5970 H         1 <0>         0.0000
     28 H9          4.8866   -2.4032    2.1134 H         1 <0>         0.0000
     29 H10         1.2506   -1.9457    4.4432 H         1 <0>         0.4500
     30 H11         2.6935   -1.1614    4.5119 H         1 <0>         0.4500
     31 H12         4.4019   -5.1974    4.2216 H         1 <0>         0.5000
@<TRIPOS>BOND
     1    1    2 ar
     2    1    4 ar
     3    2    5 ar
     4    3    6 ar
     5    3    7 ar
     6    4    8 ar
     7    5    9 ar
     8    6   11 ar
     9    7   12 ar
    10    8    9 ar
    11    8   14 1
    12    9   15 1
    13   10   11 ar
    14   10   12 ar
    15   10   15 1
    16   11   18 1
    17   12   19 1
    18   13   14 1
    19   13   16 2
    20   13   17 1
    21    1   20 1
    22    2   21 1
    23    3   22 1
    24    4   23 1
    25    5   24 1
    26    6   25 1
    27    7   26 1
    28   14   27 1
    29   14   28 1
    30   15   29 1
    31   15   30 1
    32   17   31 1
