@<TRIPOS>MOLECULE
*****
   32    34     0     0     0
SMALL
USER_CHARGES

@<TRIPOS>ATOM
      1 C1          1.2246    1.0706    1.4116 C.ar      1 <0>        -0.1500
      2 C2          2.8472    3.3258    9.1575 C.ar      1 <0>        -0.1500
      3 C3          0.0447    0.4598    0.9832 C.ar      1 <0>        -0.1500
      4 C4          2.0742    2.2097    8.8377 C.ar      1 <0>        -0.1500
      5 C5          1.2918    1.6641    2.6734 C.ar      1 <0>        -0.1500
      6 C6          3.1151    4.2903    8.1860 C.ar      1 <0>        -0.1500
      7 C7         -1.0768    0.4374    1.8125 C.ar      1 <0>        -0.1500
      8 C8          1.5691    2.0579    7.5464 C.ar      1 <0>        -0.1500
      9 C9          0.1706    1.6488    3.5182 C.ar      1 <0>         0.0000
     10 C10         2.6100    4.1385    6.8947 C.ar      1 <0>        -0.1435
     11 C11        -1.0168    1.0293    3.0764 C.ar      1 <0>         0.3610
     12 C12         1.8370    3.0224    6.5749 C.ar      1 <0>         0.1000
     13 C13         0.1503    2.2177    4.7942 C.ar      1 <0>         0.4100
     14 C14        -2.0082    1.5954    5.1068 C.ar      1 <0>         0.8480
     15 C15         2.9126    5.1870    5.8741 C.3       1 <0>         0.1435
     16 N1         -0.9219    2.2082    5.6135 N.ar      1 <0>        -0.6200
     17 N2         -2.0823    1.0236    3.8984 N.ar      1 <0>        -0.1790
     18 N3          1.3207    2.8533    5.2811 N.pl3     1 <0>        -0.6000
     19 Cl1        -3.3754    1.5781    6.1446 Cl        1 <0>        -0.1770
     20 H1          2.0942    1.0834    0.7605 H         1 <0>         0.1500
     21 H2          3.2405    3.4438   10.1630 H         1 <0>         0.1500
     22 H3          0.0000   -0.0002   -0.0000 H         1 <0>         0.1500
     23 H4          1.8657    1.4588    9.5942 H         1 <0>         0.1500
     24 H5          2.2269    2.1304    2.9733 H         1 <0>         0.1500
     25 H6          3.7184    5.1562    8.4455 H         1 <0>         0.1500
     26 H7         -1.9893   -0.0417    1.4686 H         1 <0>         0.1500
     27 H8          0.9679    1.1839    7.3088 H         1 <0>         0.1500
     28 H9          3.8393    4.9425    5.3426 H         1 <0>         0.0000
     29 H10         2.1008    5.2721    5.1415 H         1 <0>         0.0000
     30 H11         3.0264    6.1728    6.3413 H         1 <0>         0.0000
     31 H12        -2.9546    0.5835    3.6083 H         1 <0>         0.4570
     32 H13         1.8882    3.2606    4.5479 H         1 <0>         0.4000
@<TRIPOS>BOND
     1    1    3 ar
     2    1    5 ar
     3    2    4 ar
     4    2    6 ar
     5    3    7 ar
     6    4    8 ar
     7    5    9 ar
     8    6   10 ar
     9    7   11 ar
    10    8   12 ar
    11    9   11 ar
    12    9   13 ar
    13   10   12 ar
    14   10   15 1
    15   11   17 ar
    16   12   18 1
    17   13   16 ar
    18   13   18 1
    19   14   16 ar
    20   14   17 ar
    21   14   19 1
    22    1   20 1
    23    2   21 1
    24    3   22 1
    25    4   23 1
    26    5   24 1
    27    6   25 1
    28    7   26 1
    29    8   27 1
    30   15   28 1
    31   15   29 1
    32   15   30 1
    33   17   31 1
    34   18   32 1
