@<TRIPOS>MOLECULE
*****
   37    39     0     0     0
SMALL
USER_CHARGES

@<TRIPOS>ATOM
      1 C1          0.6547    5.5723   -7.1934 C.ar      1 <0>        -0.1500
      2 C2          1.8303    4.9545   -7.6265 C.ar      1 <0>        -0.1500
      3 C3          2.4365    4.3478   -5.3376 C.ar      1 <0>        -0.1500
      4 C4          0.3980    5.5623   -5.8407 C.ar      1 <0>         0.1000
      5 C5          1.2745    4.9593   -4.9159 C.ar      1 <0>         0.1000
      6 C6          2.7110    4.3491   -6.7092 C.ar      1 <0>         0.1110
      7 C7         -0.4972    5.8319   -3.7566 C.2       1 <0>         0.5500
      8 C8          0.5201    0.5096   -1.2611 C.3       1 <0>         0.0000
      9 C9          0.6125    1.5684   -0.1672 C.3       1 <0>         0.0000
     10 C10        -0.1742    1.0481   -2.5078 C.3       1 <0>         0.0000
     11 C11         1.2860    2.8452   -0.6734 C.3       1 <0>         0.0000
     12 C12         0.4990    2.3217   -3.0215 C.3       1 <0>         0.0000
     13 C13         0.6065    3.4027   -1.9336 C.3       1 <0>         0.2800
     14 C14         1.3682    4.6222   -2.4559 C.3       1 <0>         0.3691
     15 N1         -1.3189    6.1896   -2.8217 N.2       1 <0>        -0.8500
     16 N2         -0.6773    6.0908   -5.1231 N.pl3     1 <0>        -0.5500
     17 N3          0.7293    5.1218   -3.6255 N.pl3     1 <0>        -0.5191
     18 O1         -0.7094    3.8324   -1.5717 O.3       1 <0>        -0.6800
     19 Br1         4.2925    3.5252   -7.3443 Br        1 <0>        -0.1110
     20 H1         -0.0223    6.0386   -7.8997 H         1 <0>         0.1500
     21 H2          2.0561    4.9495   -8.6906 H         1 <0>         0.1500
     22 H3          3.1132    3.8827   -4.6285 H         1 <0>         0.1500
     23 H4          1.5290    0.1684   -1.5242 H         1 <0>         0.0000
     24 H5         -0.0240   -0.3639   -0.8843 H         1 <0>         0.0000
     25 H6         -0.3935    1.8022    0.2020 H         1 <0>         0.0000
     26 H7          1.1767    1.1692    0.6834 H         1 <0>         0.0000
     27 H8         -0.1617    0.2848   -3.2941 H         1 <0>         0.0000
     28 H9         -1.2279    1.2518   -2.2816 H         1 <0>         0.0000
     29 H10         1.2564    3.5903    0.1314 H         1 <0>         0.0000
     30 H11         2.3421    2.6317   -0.8817 H         1 <0>         0.0000
     31 H12         1.4991    2.0700   -3.3968 H         1 <0>         0.0000
     32 H13        -0.0822    2.6980   -3.8724 H         1 <0>         0.0000
     33 H14         1.3601    5.3680   -1.6639 H         1 <0>         0.0000
     34 H15         2.3812    4.2950   -2.6801 H         1 <0>         0.0000
     35 H16        -0.9518    5.8782   -1.9188 H         1 <0>         0.4000
     36 H17        -1.4541    6.5779   -5.5430 H         1 <0>         0.4000
     37 H18        -1.1668    3.0486   -1.2344 H         1 <0>         0.4000
@<TRIPOS>BOND
     1    1    2 ar
     2    1    4 ar
     3    2    6 ar
     4    3    5 ar
     5    3    6 ar
     6    4    5 ar
     7    4   16 1
     8    5   17 1
     9    6   19 1
    10    7   15 2
    11    7   16 1
    12    7   17 1
    13    8    9 1
    14    8   10 1
    15    9   11 1
    16   10   12 1
    17   11   13 1
    18   12   13 1
    19   13   14 1
    20   13   18 1
    21   14   17 1
    22    1   20 1
    23    2   21 1
    24    3   22 1
    25    8   23 1
    26    8   24 1
    27    9   25 1
    28    9   26 1
    29   10   27 1
    30   10   28 1
    31   11   29 1
    32   11   30 1
    33   12   31 1
    34   12   32 1
    35   14   33 1
    36   14   34 1
    37   15   35 1
    38   16   36 1
    39   18   37 1
