@<TRIPOS>MOLECULE
*****
   43    45     0     0     0
SMALL
USER_CHARGES

@<TRIPOS>ATOM
      1 C1         -6.9580   -3.7095   -0.8269 C.ar      1 <0>        -0.1500
      2 C2         -7.1387   -3.1906    0.4522 C.ar      1 <0>        -0.1500
      3 C3         -4.2407   -4.6030   -3.0213 C.ar      1 <0>         0.1600
      4 C4         -5.6852   -3.9214   -1.3453 C.ar      1 <0>         0.3100
      5 C5         -4.5903   -3.5911   -0.5269 C.ar      1 <0>         0.3610
      6 C6         -3.2954   -3.7878   -1.0079 C.ar      1 <0>         0.0825
      7 C7         -3.1117   -4.3046   -2.2814 C.ar      1 <0>         0.1900
      8 C8         -6.0211   -2.8862    1.2070 C.ar      1 <0>         0.4435
      9 C9          0.6781   -3.1347   -0.0091 C.3       1 <0>         0.0000
     10 C10         0.2199   -0.6779    0.3643 C.3       1 <0>         0.0000
     11 C11         1.9645   -3.0183    0.8058 C.3       1 <0>         0.0000
     12 C12         1.5058   -0.5626    1.1801 C.3       1 <0>         0.0000
     13 C13        -0.3641   -2.0955    0.4249 C.3       1 <0>         0.0000
     14 C14         2.5421   -1.6029    0.7494 C.3       1 <0>         0.2700
     15 C15        -3.6924   -2.7284    1.6034 C.3       1 <0>         0.4880
     16 C16        -1.6202   -2.1988   -0.4384 C.3       1 <0>         0.2800
     17 N1         -5.5094   -4.4233   -2.5826 N.ar      1 <0>        -0.6200
     18 N2         -4.7979   -3.0913    0.7047 N.ar      1 <0>        -0.2100
     19 N3          3.7296   -1.5085    1.5634 N.3       1 <0>        -0.9900
     20 O1         -6.2203   -2.3742    2.4685 O.3       1 <0>        -0.5325
     21 O2         -2.1556   -3.5013   -0.2975 O.3       1 <0>        -0.3625
     22 F1         -1.8887   -4.5105   -2.7847 F         1 <0>        -0.1900
     23 H1         -7.8342   -3.9508   -1.4250 H         1 <0>         0.1500
     24 H2         -8.1399   -3.0320    0.8397 H         1 <0>         0.1500
     25 H3         -4.1552   -5.0097   -4.0237 H         1 <0>         0.1500
     26 H4          0.9133   -3.0068   -1.0736 H         1 <0>         0.0000
     27 H5          0.2681   -4.1454    0.1054 H         1 <0>         0.0000
     28 H6         -0.5132    0.0449    0.7419 H         1 <0>         0.0000
     29 H7          0.4283   -0.4036   -0.6779 H         1 <0>         0.0000
     30 H8          1.7527   -3.2994    1.8461 H         1 <0>         0.0000
     31 H9          2.6978   -3.7409    0.4266 H         1 <0>         0.0000
     32 H10         1.9152    0.4487    1.0656 H         1 <0>         0.0000
     33 H11         1.2644   -0.6869    2.2441 H         1 <0>         0.0000
     34 H12        -0.6509   -2.3068    1.4637 H         1 <0>         0.0000
     35 H13         2.8283   -1.3905   -0.2956 H         1 <0>         0.0000
     36 H14        -3.4249   -1.6823    1.4309 H         1 <0>         0.0000
     37 H15        -3.9900   -2.8608    2.6474 H         1 <0>         0.0000
     38 H16        -2.8285   -3.3682    1.4019 H         1 <0>         0.0000
     39 H17        -1.3665   -2.0231   -1.4831 H         1 <0>         0.0000
     40 H18        -2.3570   -1.4672   -0.1090 H         1 <0>         0.0000
     41 H19         3.5828   -0.8001    2.2418 H         1 <0>         0.3600
     42 H20         3.8754   -2.3880    1.9981 H         1 <0>         0.3600
     43 H21        -7.1676   -2.3029    2.6406 H         1 <0>         0.4500
@<TRIPOS>BOND
     1    1    2 ar
     2    1    4 ar
     3    2    8 ar
     4    3    7 ar
     5    3   17 ar
     6    4    5 ar
     7    4   17 ar
     8    5    6 ar
     9    5   18 ar
    10    6    7 ar
    11    6   21 1
    12    7   22 1
    13    8   18 ar
    14    8   20 1
    15    9   11 1
    16    9   13 1
    17   10   12 1
    18   10   13 1
    19   11   14 1
    20   12   14 1
    21   13   16 1
    22   14   19 1
    23   15   18 1
    24   16   21 1
    25    1   23 1
    26    2   24 1
    27    3   25 1
    28    9   26 1
    29    9   27 1
    30   10   28 1
    31   10   29 1
    32   11   30 1
    33   11   31 1
    34   12   32 1
    35   12   33 1
    36   13   34 1
    37   14   35 1
    38   15   36 1
    39   15   37 1
    40   15   38 1
    41   16   39 1
    42   16   40 1
    43   19   41 1
    44   19   42 1
    45   20   43 1
