@<TRIPOS>MOLECULE
*****
   26    28     0     0     0
SMALL
USER_CHARGES

@<TRIPOS>ATOM
      1 C1         -2.6402   -3.7435    4.2063 C.ar      1 <0>        -0.1500
      2 C2         -2.8852   -3.9717    2.8522 C.ar      1 <0>        -0.1500
      3 C3         -1.7934   -2.7062    4.5968 C.ar      1 <0>        -0.1500
      4 C4         -2.2831   -3.1626    1.8886 C.ar      1 <0>        -0.1500
      5 C5         -1.1913   -1.8971    3.6332 C.ar      1 <0>        -0.1500
      6 C6         -1.4361   -2.1253    2.2791 C.ar      1 <0>         0.0862
      7 C7         -0.8052   -1.2776    1.2692 C.2       1 <0>         0.3028
      8 C8          0.1075    0.2325   -0.8057 C.2       1 <0>        -0.1238
      9 C9         -0.4178    0.7533    0.2966 C.2       1 <0>         0.3420
     10 C10         0.5418    1.4295   -1.4908 C.2       1 <0>         0.6466
     11 C11         0.2150   -1.2014   -1.0910 C.3       1 <0>         0.1382
     12 C12         0.1203   -1.9637    0.2381 C.3       1 <0>         0.3510
     13 N1         -0.9979    0.0155    1.2897 N.2       1 <0>        -0.6210
     14 N2         -0.3656    2.1187    0.3199 N.2       1 <0>        -0.1710
     15 N3          0.2015    2.5285   -0.7302 N.2       1 <0>        -0.2110
     16 N4          1.1465    1.5164   -2.6200 N.2       1 <0>        -0.8500
     17 Cl1         1.7316   -2.0619    1.0224 Cl        1 <0>        -0.2900
     18 H1         -3.1090   -4.3735    4.9566 H         1 <0>         0.1500
     19 H2         -3.5444   -4.7795    2.5484 H         1 <0>         0.1500
     20 H3         -1.6029   -2.5283    5.6511 H         1 <0>         0.1500
     21 H4         -2.4809   -3.3492    0.8362 H         1 <0>         0.1500
     22 H5         -0.5331   -1.0918    3.9490 H         1 <0>         0.1500
     23 H6         -0.6195   -1.4922   -1.7400 H         1 <0>         0.0000
     24 H7          1.1412   -1.4403   -1.6245 H         1 <0>         0.0000
     25 H8         -0.2074   -2.9936    0.0643 H         1 <0>         0.0000
     26 H9          1.3220    2.5037   -2.8411 H         1 <0>         0.4000
@<TRIPOS>BOND
     1    1    2 ar
     2    1    3 ar
     3    2    4 ar
     4    3    5 ar
     5    4    6 ar
     6    5    6 ar
     7    6    7 1
     8    7   12 1
     9    7   13 2
    10    8    9 2
    11    8   10 1
    12    8   11 1
    13    9   13 1
    14    9   14 1
    15   10   15 1
    16   10   16 2
    17   11   12 1
    18   12   17 1
    19   14   15 2
    20    1   18 1
    21    2   19 1
    22    3   20 1
    23    4   21 1
    24    5   22 1
    25   11   23 1
    26   11   24 1
    27   12   25 1
    28   16   26 1
