@<TRIPOS>MOLECULE
*****
   27    29     0     0     0
SMALL
USER_CHARGES

@<TRIPOS>ATOM
      1 C1          0.1725   -5.7010    2.1680 C.ar      1 <0>        -0.1500
      2 C2          1.1858   -4.7844    2.4487 C.ar      1 <0>        -0.1500
      3 C3         -0.8860   -5.3372    1.3357 C.ar      1 <0>        -0.1500
      4 C4          1.1405   -3.5041    1.8972 C.ar      1 <0>        -0.1500
      5 C5         -0.9313   -4.0568    0.7841 C.ar      1 <0>        -0.1500
      6 C6          0.0819   -3.1402    1.0648 C.ar      1 <0>         0.0284
      7 C7          0.0340   -1.8018    0.4880 C.2       1 <0>         0.1426
      8 C8          0.6073   -1.5393   -0.7100 C.2       1 <0>         0.0018
      9 C9         -0.5031    0.3681    0.8409 C.2       1 <0>         0.6000
     10 C10        -0.0743    2.1778   -0.3578 C.cat     1 <0>         0.5500
     11 C11         0.5762   -0.1468   -1.2904 C.3       1 <0>         0.1382
     12 C12         0.5189    0.8396   -0.1396 C.3       1 <0>         0.1220
     13 N1         -0.7040   -0.8610    1.1880 N.2       1 <0>        -0.6210
     14 N2         -1.2682    1.4246    1.2796 N.2       1 <0>        -0.2110
     15 N3         -1.0599    2.4454    0.5556 N.2       1 <0>        -0.2110
     16 N4          0.3563    2.9571   -1.2718 N.pl3     1 <0>        -0.2000
     17 Cl1         1.4605   -2.7133   -1.6490 Cl        1 <0>        -0.1400
     18 H1          0.2085   -6.6983    2.5964 H         1 <0>         0.1500
     19 H2          2.0108   -5.0679    3.0959 H         1 <0>         0.1500
     20 H3         -1.6745   -6.0511    1.1161 H         1 <0>         0.1500
     21 H4          1.9378   -2.8005    2.1253 H         1 <0>         0.1500
     22 H5         -1.7631   -3.7882    0.1372 H         1 <0>         0.1500
     23 H6          1.4716    0.0571   -1.8895 H         1 <0>         0.0000
     24 H7         -0.2886   -0.0471   -1.9580 H         1 <0>         0.0000
     25 H8          1.4851    0.9349    0.3710 H         1 <0>         0.0000
     26 H9          1.1349    2.6963   -1.9014 H         1 <0>         0.4000
     27 H10        -0.0479    3.8953   -1.4365 H         1 <0>         0.4000
@<TRIPOS>BOND
     1    1    2 ar
     2    1    3 ar
     3    2    4 ar
     4    3    5 ar
     5    4    6 ar
     6    5    6 ar
     7    6    7 1
     8    7    8 2
     9    7   13 1
    10    8   11 1
    11    8   17 1
    12    9   12 1
    13    9   13 2
    14    9   14 1
    15   10   12 1
    16   10   15 1
    17   10   16 2
    18   11   12 1
    19   14   15 2
    20    1   18 1
    21    2   19 1
    22    3   20 1
    23    4   21 1
    24    5   22 1
    25   11   23 1
    26   11   24 1
    27   12   25 1
    28   16   26 1
    29   16   27 1
