@<TRIPOS>MOLECULE
*****
   26    28     0     0     0
SMALL
USER_CHARGES

@<TRIPOS>ATOM
      1 C1          3.6792   -0.0879   -4.8356 C.ar      1 <0>        -0.1500
      2 C2          3.9890   -0.2756   -3.4887 C.ar      1 <0>        -0.1500
      3 C3          2.3786    0.2474   -5.2120 C.ar      1 <0>        -0.1500
      4 C4          2.9982   -0.1281   -2.5180 C.ar      1 <0>        -0.1500
      5 C5          1.3877    0.3949   -4.2414 C.ar      1 <0>        -0.1500
      6 C6          1.6975    0.2072   -2.8943 C.ar      1 <0>        -0.1435
      7 C7         -0.8168   -1.0627   -0.2919 C.2       1 <0>        -0.2882
      8 C8         -0.4608   -0.2375    0.6848 C.2       1 <0>         0.0288
      9 C9          0.6249    0.6848    0.4601 C.2       1 <0>         0.6466
     10 C10        -0.8156   -0.0813    2.0728 C.2       1 <0>         0.6466
     11 C11         0.6330    0.3655   -1.8526 C.3       1 <0>         0.3895
     12 C12        -0.0790   -0.9972   -1.6009 C.3       1 <0>         0.4282
     13 N1          1.2258    0.9768   -0.6310 N.2       1 <0>        -0.6960
     14 N2          0.9017    1.2375    1.6898 N.2       1 <0>        -0.2110
     15 N3          0.0848    0.8316    2.5801 N.2       1 <0>        -0.2110
     16 N4         -1.7439   -0.6376    2.7577 N.2       1 <0>        -0.8500
     17 Cl1        -1.2398   -1.3282   -2.9311 Cl        1 <0>        -0.2900
     18 H1          4.4511   -0.2014   -5.5912 H         1 <0>         0.1500
     19 H2          5.0019   -0.5356   -3.1953 H         1 <0>         0.1500
     20 H3          2.1373    0.3947   -6.2605 H         1 <0>         0.1500
     21 H4          3.2487   -0.2765   -1.4709 H         1 <0>         0.1500
     22 H5          0.3771    0.6562   -4.5439 H         1 <0>         0.1500
     23 H6         -1.5717   -1.8242   -0.1248 H         1 <0>         0.1500
     24 H7         -0.0859    1.0955   -2.2472 H         1 <0>         0.0000
     25 H8          0.6441   -1.8217   -1.6208 H         1 <0>         0.0000
     26 H9         -1.7135   -0.2949    3.7264 H         1 <0>         0.4000
@<TRIPOS>BOND
     1    1    2 ar
     2    1    3 ar
     3    2    4 ar
     4    3    5 ar
     5    4    6 ar
     6    5    6 ar
     7    6   11 1
     8    7    8 2
     9    7   12 1
    10    8    9 1
    11    8   10 1
    12    9   13 2
    13    9   14 1
    14   10   15 1
    15   10   16 2
    16   11   12 1
    17   11   13 1
    18   12   17 1
    19   14   15 2
    20    1   18 1
    21    2   19 1
    22    3   20 1
    23    4   21 1
    24    5   22 1
    25    7   23 1
    26   11   24 1
    27   12   25 1
    28   16   26 1
