@<TRIPOS>MOLECULE
*****
   29    30     0     0     0
SMALL
USER_CHARGES

@<TRIPOS>ATOM
      1 C1         -0.8096   -4.8785   -0.4325 C.ar      1 <0>        -0.1500
      2 C2         -2.0209   -4.8974   -1.1238 C.ar      1 <0>        -0.1500
      3 C3          0.0526   -3.7901   -0.5658 C.ar      1 <0>        -0.1500
      4 C4         -1.5078   -2.7396   -2.0819 C.ar      1 <0>        -0.1500
      5 C5         -2.3700   -3.8280   -1.9485 C.ar      1 <0>        -0.1435
      6 C6         -0.2965   -2.7207   -1.3905 C.ar      1 <0>         0.1790
      7 C7          1.1053    1.4948    0.1991 C.2       1 <0>        -0.1500
      8 C8          1.2554    0.5417   -0.7268 C.2       1 <0>        -0.1356
      9 C9          0.1402    1.4060    1.2632 C.2       1 <0>        -0.1500
     10 C10        -0.7011    0.3685    1.3582 C.2       1 <0>        -0.2882
     11 C11         0.3918   -0.6647   -0.6739 C.2       1 <0>         0.3746
     12 C12        -2.0610   -0.7492   -0.2818 C.2       1 <0>         0.9060
     13 C13        -0.7014   -0.7707    0.3869 C.3       1 <0>         0.0932
     14 C14        -3.6652   -3.8478   -2.6877 C.3       1 <0>         1.1635
     15 N1          0.5707   -1.6265   -1.5248 N.2       1 <0>        -0.6290
     16 O1         -2.3219    0.2963   -0.9391 O.co2     1 <0>        -0.9000
     17 O2         -2.7600   -1.7842   -0.0941 O.co2     1 <0>        -0.9000
     18 F1         -4.4067   -4.9728   -2.4629 F         1 <0>        -0.3400
     19 F2         -4.4916   -2.8076   -2.3707 F         1 <0>        -0.3400
     20 F3         -3.4986   -3.7838   -4.0409 F         1 <0>        -0.3400
     21 H1         -0.5381   -5.7111    0.2099 H         1 <0>         0.1500
     22 H2         -2.6870   -5.7494   -1.0134 H         1 <0>         0.1500
     23 H3          0.9944   -3.7844   -0.0232 H         1 <0>         0.1500
     24 H4         -1.7805   -1.9053   -2.7243 H         1 <0>         0.1500
     25 H5          1.7331    2.3796    0.1728 H         1 <0>         0.1500
     26 H6          1.9953    0.6215   -1.5142 H         1 <0>         0.1500
     27 H7          0.1121    2.2094    1.9911 H         1 <0>         0.1500
     28 H8         -1.4087    0.3390    2.1829 H         1 <0>         0.1500
     29 H9         -0.5774   -1.7155    0.9269 H         1 <0>         0.0000
@<TRIPOS>BOND
     1    1    2 ar
     2    1    3 ar
     3    2    5 ar
     4    3    6 ar
     5    4    5 ar
     6    4    6 ar
     7    5   14 1
     8    6   15 1
     9    7    8 2
    10    7    9 1
    11    8   11 1
    12    9   10 2
    13   10   13 1
    14   11   13 1
    15   11   15 2
    16   12   13 1
    17   12   16 1
    18   12   17 2
    19   14   18 1
    20   14   19 1
    21   14   20 1
    22    1   21 1
    23    2   22 1
    24    3   23 1
    25    4   24 1
    26    7   25 1
    27    8   26 1
    28    9   27 1
    29   10   28 1
    30   13   29 1
