@<TRIPOS>MOLECULE
*****
   26    27     0     0     0
SMALL
USER_CHARGES

@<TRIPOS>ATOM
      1 C1          3.0913   -1.3524    0.3263 C.ar      1 <0>        -0.1500
      2 C2          1.5879    0.8085    1.2132 C.ar      1 <0>        -0.1500
      3 C3          3.6493   -0.4117    1.2094 C.ar      1 <0>         0.0000
      4 C4          2.8996    0.6850    1.6650 C.ar      1 <0>         0.3100
      5 C5          1.7781   -1.2046   -0.1090 C.ar      1 <0>         0.0825
      6 C6          1.0259   -0.1228    0.3350 C.ar      1 <0>         0.0825
      7 C7          4.9553   -0.5013    1.6825 C.ar      1 <0>         0.4100
      8 C8          4.7000    1.3925    2.8954 C.ar      1 <0>         0.7970
      9 C9          1.3926   -1.8690   -2.3597 C.3       1 <0>         0.2800
     10 C10        -1.2803   -0.5664    0.7098 C.3       1 <0>         0.2800
     11 N1          3.4231    1.5906    2.5098 N.ar      1 <0>        -0.6200
     12 N2          5.5107    0.3871    2.5281 N.ar      1 <0>        -0.6200
     13 N3          5.7717   -1.5834    1.2695 N.pl3     1 <0>        -0.9000
     14 O1          1.2433   -2.1198   -0.9632 O.3       1 <0>        -0.3625
     15 O2         -0.2612    0.0430   -0.0801 O.3       1 <0>        -0.3625
     16 Cl1         5.3587    2.5501    3.9661 Cl        1 <0>        -0.1770
     17 H1          3.6643   -2.2045   -0.0319 H         1 <0>         0.1500
     18 H2          0.9835    1.6499    1.5491 H         1 <0>         0.1500
     19 H3          0.9214   -2.6748   -2.9278 H         1 <0>         0.0000
     20 H4          2.4551   -1.8067   -2.6081 H         1 <0>         0.0000
     21 H5          0.9070   -0.9214   -2.6046 H         1 <0>         0.0000
     22 H6         -2.2580   -0.3572    0.2689 H         1 <0>         0.0000
     23 H7         -1.2366   -0.1735    1.7287 H         1 <0>         0.0000
     24 H8         -1.1159   -1.6463    0.7305 H         1 <0>         0.0000
     25 H9          5.3780   -2.2869    0.6834 H         1 <0>         0.4000
     26 H10         6.6894   -1.6659    1.6495 H         1 <0>         0.4000
@<TRIPOS>BOND
     1    1    3 ar
     2    1    5 ar
     3    2    4 ar
     4    2    6 ar
     5    3    4 ar
     6    3    7 ar
     7    4   11 ar
     8    5    6 ar
     9    5   14 1
    10    6   15 1
    11    7   12 ar
    12    7   13 1
    13    8   11 ar
    14    8   12 ar
    15    8   16 1
    16    9   14 1
    17   10   15 1
    18    1   17 1
    19    2   18 1
    20    9   19 1
    21    9   20 1
    22    9   21 1
    23   10   22 1
    24   10   23 1
    25   10   24 1
    26   13   25 1
    27   13   26 1
