@<TRIPOS>MOLECULE
*****
   41    42     0     0     0
SMALL
USER_CHARGES

@<TRIPOS>ATOM
      1 C1         -3.2147   -2.4415   -0.1418 C.ar      1 <0>        -0.1500
      2 C2         -4.5483   -0.6172    0.7129 C.ar      1 <0>        -0.1500
      3 C3         -3.4889   -1.0757   -0.0701 C.ar      1 <0>        -0.1435
      4 C4         -4.0000   -3.3488    0.5694 C.ar      1 <0>        -0.1435
      5 C5         -5.3335   -1.5245    1.4243 C.ar      1 <0>        -0.1435
      6 C6         -5.0593   -2.8903    1.3525 C.ar      1 <0>        -0.1710
      7 C7         -0.2280   -0.5858   -0.4660 C.2       1 <0>         0.0210
      8 C8         -1.3169    0.1471   -0.1881 C.2       1 <0>        -0.1682
      9 C9         -1.1315    1.2340    0.8171 C.2       1 <0>         0.1190
     10 C10         1.1270    0.5670    0.9834 C.2       1 <0>         0.0100
     11 C11        -3.6554   -4.8031    0.4522 C.3       1 <0>         0.1435
     12 C12        -6.5196    0.5815    2.1340 C.3       1 <0>         0.0000
     13 C13        -6.2772   -1.3314    3.7521 C.3       1 <0>         0.0000
     14 C14        -7.8803   -1.4811    1.8576 C.3       1 <0>         0.0000
     15 C15        -2.6421   -0.0972   -0.8372 C.3       1 <0>         0.2817
     16 C16        -6.4571   -0.9705    2.2477 C.3       1 <0>         0.1435
     17 N1          0.1950    1.4176    1.4150 N.2       1 <0>        -0.5500
     18 N2          0.9994   -0.3878    0.1108 N.2       1 <0>        -0.6210
     19 N3          2.3147    0.7572    1.5426 N.2       1 <0>        -0.9300
     20 N4         -2.0704    1.9913    1.1643 N.pl3     1 <0>        -0.1190
     21 O1         -5.7824   -3.7258    2.0077 O.3       1 <0>        -0.8290
     22 H1         -2.3880   -2.7965   -0.7529 H         1 <0>         0.1500
     23 H2         -4.7600    0.4482    0.7673 H         1 <0>         0.1500
     24 H3         -0.2729   -1.3966   -1.1856 H         1 <0>         0.1500
     25 H4         -2.9370   -5.0812    1.2293 H         1 <0>         0.0000
     26 H5         -4.5496   -5.4262    0.5570 H         1 <0>         0.0000
     27 H6         -3.2200   -5.0236   -0.5281 H         1 <0>         0.0000
     28 H7         -7.3341    1.0126    2.7278 H         1 <0>         0.0000
     29 H8         -5.5906    1.0491    2.4781 H         1 <0>         0.0000
     30 H9         -6.6722    0.8819    1.0905 H         1 <0>         0.0000
     31 H10        -7.0934   -0.9311    4.3634 H         1 <0>         0.0000
     32 H11        -6.2504   -2.4140    3.9231 H         1 <0>         0.0000
     33 H12        -5.3410   -0.9097    4.1365 H         1 <0>         0.0000
     34 H13        -8.6669   -1.0482    2.4874 H         1 <0>         0.0000
     35 H14        -8.1196   -1.2209    0.8199 H         1 <0>         0.0000
     36 H15        -7.9482   -2.5703    1.9612 H         1 <0>         0.0000
     37 H16        -2.4811   -0.4687   -1.8550 H         1 <0>         0.0000
     38 H17        -3.1684    0.8571   -0.9434 H         1 <0>         0.0000
     39 H18         2.6776   -0.1477    1.8504 H         1 <0>         0.1500
     40 H19        -3.0404    1.9183    0.7800 H         1 <0>         0.4000
     41 H20        -1.9608    2.7586    1.8668 H         1 <0>         0.4000
@<TRIPOS>BOND
     1    1    3 ar
     2    1    4 ar
     3    2    3 ar
     4    2    5 ar
     5    3   15 1
     6    4    6 ar
     7    4   11 1
     8    5    6 ar
     9    5   16 1
    10    6   21 1
    11    7    8 2
    12    7   18 1
    13    8    9 1
    14    8   15 1
    15    9   17 1
    16    9   20 2
    17   10   17 1
    18   10   18 2
    19   10   19 1
    20   12   16 1
    21   13   16 1
    22   14   16 1
    23    1   22 1
    24    2   23 1
    25    7   24 1
    26   11   25 1
    27   11   26 1
    28   11   27 1
    29   12   28 1
    30   12   29 1
    31   12   30 1
    32   13   31 1
    33   13   32 1
    34   13   33 1
    35   14   34 1
    36   14   35 1
    37   14   36 1
    38   15   37 1
    39   15   38 1
    40   19   39 1
    41   20   40 1
    42   20   41 1
