@<TRIPOS>MOLECULE
*****
   45    48     0     0     0
SMALL
USER_CHARGES

@<TRIPOS>ATOM
      1 C1         -0.2325    1.7523   -5.8525 C.ar      1 <0>        -0.1500
      2 C2         -0.9297    0.7308   -6.5290 C.ar      1 <0>        -0.1500
      3 C3         -0.3225    1.8916   -4.4653 C.ar      1 <0>        -0.1500
      4 C4         -1.7361   -0.1788   -5.8364 C.ar      1 <0>        -0.1500
      5 C5         -3.4401    0.2839    5.7147 C.ar      1 <0>         0.1600
      6 C6         -5.7732    0.3923    5.7476 C.ar      1 <0>         0.1600
      7 C7         -4.6422   -0.3446    5.4613 C.ar      1 <0>        -0.1435
      8 C8         -1.1184    0.9928   -3.7917 C.ar      1 <0>         0.1000
      9 C9         -1.8254   -0.0406   -4.4670 C.ar      1 <0>         0.1000
     10 C10        -4.5124    2.1497    6.4469 C.ar      1 <0>         0.7025
     11 C11        -3.2045   -1.9667    2.9241 C.2       1 <0>         0.0210
     12 C12        -4.4245   -1.7969    3.4437 C.2       1 <0>        -0.1238
     13 C13        -5.5539   -1.6558    2.4724 C.2       1 <0>         0.3356
     14 C14        -2.2581   -0.1952   -2.2543 C.2       1 <0>         0.2000
     15 C15        -3.9922   -1.8828    0.8246 C.2       1 <0>         0.3710
     16 C16        -2.7262   -0.5862   -1.0588 C.2       1 <0>        -0.0490
     17 C17        -3.3525   -1.9147   -3.8579 C.3       1 <0>         0.3691
     18 C18        -3.1469    3.9576    7.1700 C.3       1 <0>         0.2800
     19 C19        -4.7150   -1.7425    4.9077 C.3       1 <0>         0.2817
     20 N1         -3.3380    1.5350    6.2092 N.ar      1 <0>        -0.6200
     21 N2         -5.7450    1.6468    6.2433 N.ar      1 <0>        -0.6200
     22 N3         -5.2643   -1.7069    1.1673 N.2       1 <0>        -0.5600
     23 N4         -2.9532   -2.0155    1.5848 N.2       1 <0>        -0.6210
     24 N5         -1.3949    0.8859   -2.4262 N.pl3     1 <0>        -0.6000
     25 N6         -2.5381   -0.7787   -3.5050 N.pl3     1 <0>        -0.5691
     26 O1         -6.6904   -1.4995    2.9172 O.2       1 <0>        -0.5700
     27 O2         -4.4464    3.4269    6.9532 O.3       1 <0>        -0.3625
     28 S1         -3.7924   -1.9283   -0.8843 S.3       1 <0>        -0.2420
     29 H1          0.3849    2.4423   -6.4222 H         1 <0>         0.1500
     30 H2         -0.8384    0.6509   -7.6094 H         1 <0>         0.1500
     31 H3          0.2149    2.6779   -3.9481 H         1 <0>         0.1500
     32 H4         -2.2663   -0.9586   -6.3709 H         1 <0>         0.1500
     33 H5         -2.4931   -0.2104    5.5225 H         1 <0>         0.1500
     34 H6         -6.7671   -0.0126    5.5839 H         1 <0>         0.1500
     35 H7         -2.3367   -2.0765    3.5659 H         1 <0>         0.1500
     36 H8         -2.4293   -0.0473   -0.1693 H         1 <0>         0.1500
     37 H9         -2.7424   -2.8293   -3.8219 H         1 <0>         0.0000
     38 H10        -4.1870   -2.0025   -3.1467 H         1 <0>         0.0000
     39 H11        -3.7500   -1.7791   -4.8746 H         1 <0>         0.0000
     40 H12        -3.2286    4.9708    7.5710 H         1 <0>         0.0000
     41 H13        -2.5958    3.9711    6.2263 H         1 <0>         0.0000
     42 H14        -2.6200    3.3252    7.8884 H         1 <0>         0.0000
     43 H15        -4.0057   -2.3853    5.4416 H         1 <0>         0.0000
     44 H16        -5.7067   -2.1701    5.0928 H         1 <0>         0.0000
     45 H17        -1.0460    1.4671   -1.6841 H         1 <0>         0.4000
@<TRIPOS>BOND
     1    1    2 ar
     2    1    3 ar
     3    2    4 ar
     4    3    8 ar
     5    4    9 ar
     6    5    7 ar
     7    5   20 ar
     8    6    7 ar
     9    6   21 ar
    10    7   19 1
    11    8    9 ar
    12    8   24 1
    13    9   25 1
    14   10   20 ar
    15   10   21 ar
    16   10   27 1
    17   11   12 2
    18   11   23 1
    19   12   13 1
    20   12   19 1
    21   13   22 1
    22   13   26 2
    23   14   16 2
    24   14   24 1
    25   14   25 1
    26   15   22 1
    27   15   23 2
    28   15   28 1
    29   16   28 1
    30   17   25 1
    31   18   27 1
    32    1   29 1
    33    2   30 1
    34    3   31 1
    35    4   32 1
    36    5   33 1
    37    6   34 1
    38   11   35 1
    39   16   36 1
    40   17   37 1
    41   17   38 1
    42   17   39 1
    43   18   40 1
    44   18   41 1
    45   18   42 1
    46   19   43 1
    47   19   44 1
    48   24   45 1
