@<TRIPOS>MOLECULE
*****
   50    53     0     0     0
SMALL
USER_CHARGES

@<TRIPOS>ATOM
      1 C1          1.4280    2.0291   11.9896 C.ar      1 <0>        -0.1500
      2 C2          1.1698    1.5061   13.2566 C.ar      1 <0>        -0.1500
      3 C3          1.0631    1.3107   10.8509 C.ar      1 <0>        -0.1500
      4 C4          6.0406   -4.2161   13.2920 C.ar      1 <0>        -0.1090
      5 C5          5.5907   -3.1945   14.1406 C.ar      1 <0>        -0.1500
      6 C6          0.5469    0.2647   13.3851 C.ar      1 <0>        -0.1500
      7 C7          4.3272   -2.0888   12.3440 C.ar      1 <0>        -0.1090
      8 C8          2.7103   -1.8592    9.7142 C.2       1 <0>        -0.1500
      9 C9          5.2144   -4.4682    9.8104 C.cat     1 <0>         0.6500
     10 C10         0.4402    0.0693   10.9794 C.ar      1 <0>        -0.1435
     11 C11         4.7811   -3.1082   11.5153 C.ar      1 <0>         0.3090
     12 C12         5.6089   -4.1359   11.9733 C.ar      1 <0>         0.3090
     13 C13         2.1133   -1.1676    8.6209 C.2       1 <0>         0.0620
     14 C14         4.7544   -2.1561   13.6778 C.ar      1 <0>        -0.0090
     15 C15         0.1821   -0.4537   12.2464 C.ar      1 <0>         0.1770
     16 C16         2.7756   -1.4027    7.4362 C.2       1 <0>        -0.0450
     17 C17         3.8062   -2.5969    9.3233 C.2       1 <0>         0.3740
     18 C18         2.4941   -0.9007    6.1292 C.2       1 <0>         0.7150
     19 C19        -1.3185   -0.2936    9.2109 C.3       1 <0>         0.0000
     20 C20         2.7179   -1.5481   15.4769 C.3       1 <0>         0.1052
     21 C21         0.0632   -0.6772    9.7220 C.3       1 <0>         0.4235
     22 N1          4.5660   -3.3574   10.1753 N.pl3     1 <0>        -0.5840
     23 N2          5.8485   -4.9492   10.8848 N.pl3     1 <0>        -0.7000
     24 N3          1.3984   -0.0388    5.9599 N.am      1 <0>        -0.8000
     25 O1          3.1806   -1.2149    5.1236 O.2       1 <0>        -0.5700
     26 O2          5.2143   -0.8516   15.8736 O.2       1 <0>        -0.6500
     27 O3          3.9005    0.2835   14.0484 O.2       1 <0>        -0.6500
     28 O4          1.0317   -0.3735    8.7086 O.3       1 <0>        -0.3420
     29 S1          4.1114   -2.4537    7.6444 S.3       1 <0>        -0.0800
     30 S2          4.2354   -0.9171   14.7995 S.o2      1 <0>         1.2038
     31 Cl1        -0.5869   -1.9862   12.4448 Cl        1 <0>        -0.1770
     32 H1          1.9124    2.9962   11.8898 H         1 <0>         0.1500
     33 H2          1.4529    2.0663   14.1430 H         1 <0>         0.1500
     34 H3          1.2686    1.7276    9.8684 H         1 <0>         0.1500
     35 H4          6.6820   -5.0179   13.6341 H         1 <0>         0.1500
     36 H5          5.9008   -3.2118   15.1837 H         1 <0>         0.1500
     37 H6          0.3518   -0.1283   14.3796 H         1 <0>         0.1500
     38 H7          3.6857   -1.2987   11.9741 H         1 <0>         0.1500
     39 H8          2.3518   -1.8162   10.7353 H         1 <0>         0.1500
     40 H9          5.2315   -4.9096    8.8265 H         1 <0>         0.1500
     41 H10        -1.3949    0.7840    9.0340 H         1 <0>         0.0000
     42 H11        -2.1055   -0.5849    9.9157 H         1 <0>         0.0000
     43 H12        -1.5340   -0.8173    8.2731 H         1 <0>         0.0000
     44 H13         2.3315   -0.8207   16.1926 H         1 <0>         0.0000
     45 H14         2.0101   -1.6934   14.6594 H         1 <0>         0.0000
     46 H15         2.9302   -2.4966   15.9724 H         1 <0>         0.0000
     47 H16         0.0919   -1.7613    9.8841 H         1 <0>         0.0000
     48 H17         6.4209   -5.7890   10.8958 H         1 <0>         0.4500
     49 H18         0.8376    0.2032    6.7696 H         1 <0>         0.3700
     50 H19         1.1472    0.3507    5.0571 H         1 <0>         0.3700
@<TRIPOS>BOND
     1    1    2 ar
     2    1    3 ar
     3    2    6 ar
     4    3   10 ar
     5    4    5 ar
     6    4   12 ar
     7    5   14 ar
     8    6   15 ar
     9    7   11 ar
    10    7   14 ar
    11    8   13 1
    12    8   17 2
    13    9   22 1
    14    9   23 2
    15   10   15 ar
    16   10   21 1
    17   11   12 ar
    18   11   22 1
    19   12   23 1
    20   13   16 2
    21   13   28 1
    22   14   30 1
    23   15   31 1
    24   16   18 1
    25   16   29 1
    26   17   22 1
    27   17   29 1
    28   18   24 am
    29   18   25 2
    30   19   21 1
    31   20   30 1
    32   21   28 1
    33   26   30 2
    34   27   30 2
    35    1   32 1
    36    2   33 1
    37    3   34 1
    38    4   35 1
    39    5   36 1
    40    6   37 1
    41    7   38 1
    42    8   39 1
    43    9   40 1
    44   19   41 1
    45   19   42 1
    46   19   43 1
    47   20   44 1
    48   20   45 1
    49   20   46 1
    50   21   47 1
    51   23   48 1
    52   24   49 1
    53   24   50 1
