@<TRIPOS>MOLECULE
*****
   37    39     0     0     0
SMALL
USER_CHARGES

@<TRIPOS>ATOM
      1 C1         -1.8164    3.9096   -2.1016 C.ar      1 <0>        -0.1500
      2 C2         -1.7832    2.5406   -2.3408 C.ar      1 <0>        -0.1500
      3 C3         -2.0744    4.3769   -0.8164 C.ar      1 <0>        -0.1500
      4 C4         -2.0075    1.6408   -1.2950 C.ar      1 <0>        -0.1500
      5 C5         -3.0146    7.1097    3.4224 C.ar      1 <0>        -0.1500
      6 C6         -2.7276    7.7852    4.6085 C.ar      1 <0>        -0.1500
      7 C7         -1.3543    5.4422    3.9703 C.ar      1 <0>        -0.1500
      8 C8         -2.2995    3.4705    0.2321 C.ar      1 <0>         0.0000
      9 C9         -2.2678    2.0783    0.0006 C.ar      1 <0>         0.3100
     10 C10        -2.3280    5.9381    3.1033 C.ar      1 <0>         0.1000
     11 C11        -1.7539    7.2893    5.4754 C.ar      1 <0>         0.0825
     12 C12        -1.0672    6.1178    5.1564 C.ar      1 <0>         0.0825
     13 C13        -2.5617    3.9018    1.5341 C.ar      1 <0>         0.4610
     14 C14        -2.7248    1.6986    2.2092 C.ar      1 <0>         0.8480
     15 C15        -2.2289    9.1474    6.8818 C.3       1 <0>         0.2800
     16 C16         0.5412    4.4216    5.5943 C.3       1 <0>         0.2800
     17 N1         -2.4798    1.1873    0.9858 N.ar      1 <0>        -0.6200
     18 N2         -2.7699    3.0008    2.5003 N.ar      1 <0>        -0.1790
     19 N3         -2.6193    5.2534    1.9004 N.pl3     1 <0>        -0.6000
     20 O1         -1.4824    7.9583    6.6307 O.3       1 <0>        -0.3625
     21 O2         -0.1137    5.6238    5.9945 O.3       1 <0>        -0.3625
     22 Cl1        -2.9874    0.5327    3.4398 Cl        1 <0>        -0.1770
     23 H1         -1.6406    4.6092   -2.9129 H         1 <0>         0.1500
     24 H2         -1.5817    2.1683   -3.3411 H         1 <0>         0.1500
     25 H3         -2.0946    5.4517   -0.6539 H         1 <0>         0.1500
     26 H4         -1.9761    0.5743   -1.5098 H         1 <0>         0.1500
     27 H5         -3.7756    7.5049    2.7543 H         1 <0>         0.1500
     28 H6         -3.2660    8.6972    4.8513 H         1 <0>         0.1500
     29 H7         -0.8163    4.5293    3.7248 H         1 <0>         0.1500
     30 H8         -1.9147    9.5815    7.8341 H         1 <0>         0.0000
     31 H9         -3.2953    8.9096    6.9118 H         1 <0>         0.0000
     32 H10        -2.0395    9.8625    6.0778 H         1 <0>         0.0000
     33 H11         1.2769    4.1374    6.3507 H         1 <0>         0.0000
     34 H12         1.0343    4.5775    4.6315 H         1 <0>         0.0000
     35 H13        -0.2026    3.6274    5.4962 H         1 <0>         0.0000
     36 H14        -2.9609    3.3064    3.4527 H         1 <0>         0.4570
     37 H15        -2.9329    5.8733    1.1545 H         1 <0>         0.4000
@<TRIPOS>BOND
     1    1    2 ar
     2    1    3 ar
     3    2    4 ar
     4    3    8 ar
     5    4    9 ar
     6    5    6 ar
     7    5   10 ar
     8    6   11 ar
     9    7   10 ar
    10    7   12 ar
    11    8    9 ar
    12    8   13 ar
    13    9   17 ar
    14   10   19 1
    15   11   12 ar
    16   11   20 1
    17   12   21 1
    18   13   18 ar
    19   13   19 1
    20   14   17 ar
    21   14   18 ar
    22   14   22 1
    23   15   20 1
    24   16   21 1
    25    1   23 1
    26    2   24 1
    27    3   25 1
    28    4   26 1
    29    5   27 1
    30    6   28 1
    31    7   29 1
    32   15   30 1
    33   15   31 1
    34   15   32 1
    35   16   33 1
    36   16   34 1
    37   16   35 1
    38   18   36 1
    39   19   37 1
