@<TRIPOS>MOLECULE
*****
   39    40     0     0     0
SMALL
USER_CHARGES

@<TRIPOS>ATOM
      1 C1          2.6569   -1.9098    1.4180 C.ar      1 <0>        -0.1500
      2 C2          2.3174   -1.6431    3.7951 C.ar      1 <0>        -0.1500
      3 C3          1.8126   -1.6390    2.4948 C.ar      1 <0>        -0.1435
      4 C4          4.0060   -2.1849    1.6416 C.ar      1 <0>         0.0825
      5 C5          3.6666   -1.9181    4.0186 C.ar      1 <0>         0.0825
      6 C6          4.5108   -2.1890    2.9419 C.ar      1 <0>         0.0825
      7 C7         -0.5263   -2.5044    2.5825 C.2       1 <0>        -0.1238
      8 C8         -1.3298   -2.6361    3.6810 C.2       1 <0>        -0.4000
      9 C9         -0.5681   -3.6420    1.6626 C.2       1 <0>         0.5356
     10 C10        -2.1623   -4.7202    3.1358 C.2       1 <0>         0.5590
     11 C11         4.2244   -2.4237   -0.7145 C.3       1 <0>         0.2800
     12 C12         3.2173   -1.6320    6.3364 C.3       1 <0>         0.2800
     13 C13        -0.5461   -3.6768   -0.6560 C.3       1 <0>         0.2800
     14 C14         0.3581   -1.3421    2.2540 C.3       1 <0>         0.2817
     15 N1         -2.1421   -3.6973    3.9901 N.2       1 <0>        -0.5800
     16 N2         -1.4424   -1.7002    4.6598 N.2       1 <0>        -0.9500
     17 N3         -2.9075   -5.7480    3.3712 N.2       1 <0>        -0.8500
     18 N4         -1.2818   -4.6854    1.8377 N.pl3     1 <0>        -0.1290
     19 O1          5.8295   -2.4578    3.1603 O.3       1 <0>        -0.5325
     20 O2          4.8199   -2.4479    0.5812 O.3       1 <0>        -0.3625
     21 O3          4.1469   -1.9187    5.2935 O.3       1 <0>        -0.3625
     22 O4          0.1906   -3.5958    0.5582 O.3       1 <0>        -0.4300
     23 H1          2.2658   -1.9071    0.4034 H         1 <0>         0.1500
     24 H2          1.6614   -1.4322    4.6362 H         1 <0>         0.1500
     25 H3          4.9820   -2.6497   -1.4689 H         1 <0>         0.0000
     26 H4          3.7932   -1.4368   -0.9000 H         1 <0>         0.0000
     27 H5          3.4350   -3.1779   -0.7570 H         1 <0>         0.0000
     28 H6          3.7295   -1.6648    7.3012 H         1 <0>         0.0000
     29 H7          2.4080   -2.3662    6.3164 H         1 <0>         0.0000
     30 H8          2.8041   -0.6328    6.1796 H         1 <0>         0.0000
     31 H9          0.1417   -3.6325   -1.5040 H         1 <0>         0.0000
     32 H10        -1.2581   -2.8493   -0.7071 H         1 <0>         0.0000
     33 H11        -1.0894   -4.6244   -0.6796 H         1 <0>         0.0000
     34 H12         0.0535   -0.4788    2.8547 H         1 <0>         0.0000
     35 H13         0.1969   -1.0569    1.2096 H         1 <0>         0.0000
     36 H14        -1.7828   -2.1790    5.4845 H         1 <0>         0.1500
     37 H15        -2.7939   -6.4271    2.6125 H         1 <0>         0.4000
     38 H16        -1.3035   -5.4726    1.1901 H         1 <0>         0.4000
     39 H17         6.2805   -2.6242    2.3181 H         1 <0>         0.4500
@<TRIPOS>BOND
     1    1    3 ar
     2    1    4 ar
     3    2    3 ar
     4    2    5 ar
     5    3   14 1
     6    4    6 ar
     7    4   20 1
     8    5    6 ar
     9    5   21 1
    10    6   19 1
    11    7    8 2
    12    7    9 1
    13    7   14 1
    14    8   15 1
    15    8   16 1
    16    9   18 2
    17    9   22 1
    18   10   15 1
    19   10   17 2
    20   10   18 1
    21   11   20 1
    22   12   21 1
    23   13   22 1
    24    1   23 1
    25    2   24 1
    26   11   25 1
    27   11   26 1
    28   11   27 1
    29   12   28 1
    30   12   29 1
    31   12   30 1
    32   13   31 1
    33   13   32 1
    34   13   33 1
    35   14   34 1
    36   14   35 1
    37   16   36 1
    38   17   37 1
    39   18   38 1
    40   19   39 1
