@<TRIPOS>MOLECULE
*****
   42    43     0     0     0
SMALL
USER_CHARGES

@<TRIPOS>ATOM
      1 C1         -3.2649   -2.4235   -0.0431 C.ar      1 <0>        -0.1500
      2 C2         -4.6062   -0.5834    0.7641 C.ar      1 <0>        -0.1500
      3 C3         -3.5445   -1.0575   -0.0064 C.ar      1 <0>        -0.1435
      4 C4         -4.0470   -3.3155    0.6905 C.ar      1 <0>        -0.1435
      5 C5         -5.3884   -1.4754    1.4978 C.ar      1 <0>        -0.1435
      6 C6         -5.1088   -2.8414    1.4610 C.ar      1 <0>         0.0825
      7 C7         -4.1697    1.4550   -2.1428 C.2       1 <0>        -0.3500
      8 C8         -3.3766    0.3709   -2.0457 C.2       1 <0>        -0.1238
      9 C9         -3.1826   -0.3963   -3.3028 C.2       1 <0>         0.7646
     10 C10        -4.6480    1.2263   -4.4548 C.2       1 <0>        -0.1410
     11 C11        -3.7319   -4.7743    0.6385 C.3       1 <0>         0.1435
     12 C12        -6.6302    0.6022    2.1961 C.3       1 <0>         0.0000
     13 C13        -6.3319   -1.2922    3.8266 C.3       1 <0>         0.0000
     14 C14        -7.9344   -1.4987    1.9370 C.3       1 <0>         0.0000
     15 C15        -2.7008   -0.0946   -0.7986 C.3       1 <0>         0.2817
     16 C16        -6.5205   -0.9488    2.3170 C.3       1 <0>         0.1435
     17 N1         -4.8332    1.9795   -3.2001 N.2       1 <0>        -0.5700
     18 N2         -5.3257    1.7150   -5.6539 N.2       1 <0>        -0.9200
     19 N3         -2.4579   -1.4590   -3.4026 N.2       1 <0>        -0.8500
     20 N4         -3.9405    0.1885   -4.5491 N.pl3     1 <0>        -0.0480
     21 O1         -5.8730   -3.7137    2.1790 O.3       1 <0>        -0.5325
     22 H1         -2.4373   -2.7928   -0.6443 H         1 <0>         0.1500
     23 H2         -4.8220    0.4822    0.7942 H         1 <0>         0.1500
     24 H3         -4.2873    1.9909   -1.1991 H         1 <0>         0.1500
     25 H4         -3.0202   -5.0377    1.4296 H         1 <0>         0.0000
     26 H5         -4.6372   -5.3804    0.7669 H         1 <0>         0.0000
     27 H6         -3.2968   -5.0516   -0.3297 H         1 <0>         0.0000
     28 H7         -7.4548    1.0149    2.7889 H         1 <0>         0.0000
     29 H8         -5.7136    1.0975    2.5347 H         1 <0>         0.0000
     30 H9         -6.7933    0.8910    1.1510 H         1 <0>         0.0000
     31 H10        -7.1598   -0.9082    4.4325 H         1 <0>         0.0000
     32 H11        -6.2744   -2.3715    4.0104 H         1 <0>         0.0000
     33 H12        -5.4084   -0.8395    4.2066 H         1 <0>         0.0000
     34 H13        -8.7312   -1.0832    2.5657 H         1 <0>         0.0000
     35 H14        -8.1831   -1.2522    0.8981 H         1 <0>         0.0000
     36 H15        -7.9723   -2.5887    2.0481 H         1 <0>         0.0000
     37 H16        -2.4524    0.7725   -0.1754 H         1 <0>         0.0000
     38 H17        -1.7438   -0.5600   -1.0605 H         1 <0>         0.0000
     39 H18        -6.2235    1.9178   -5.2953 H         1 <0>         0.1500
     40 H19        -2.4866   -1.7978   -4.3694 H         1 <0>         0.4000
     41 H20        -3.8399   -0.3039   -5.4379 H         1 <0>         0.4000
     42 H21        -5.5542   -4.6202    2.0505 H         1 <0>         0.4500
@<TRIPOS>BOND
     1    1    3 ar
     2    1    4 ar
     3    2    3 ar
     4    2    5 ar
     5    3   15 1
     6    4    6 ar
     7    4   11 1
     8    5    6 ar
     9    5   16 1
    10    6   21 1
    11    7    8 2
    12    7   17 1
    13    8    9 1
    14    8   15 1
    15    9   19 2
    16    9   20 1
    17   10   17 1
    18   10   18 1
    19   10   20 2
    20   12   16 1
    21   13   16 1
    22   14   16 1
    23    1   22 1
    24    2   23 1
    25    7   24 1
    26   11   25 1
    27   11   26 1
    28   11   27 1
    29   12   28 1
    30   12   29 1
    31   12   30 1
    32   13   31 1
    33   13   32 1
    34   13   33 1
    35   14   34 1
    36   14   35 1
    37   14   36 1
    38   15   37 1
    39   15   38 1
    40   18   39 1
    41   19   40 1
    42   20   41 1
    43   21   42 1
