@<TRIPOS>MOLECULE
*****
   40    41     0     0     0
SMALL
USER_CHARGES

@<TRIPOS>ATOM
      1 C1          2.2886    0.1259    2.4848 C.ar      1 <0>        -0.1500
      2 C2          1.2550    0.6458    4.6056 C.ar      1 <0>        -0.1500
      3 C3          1.1648    0.5003    3.2213 C.ar      1 <0>        -0.1435
      4 C4          3.5026   -0.1031    3.1325 C.ar      1 <0>         0.0825
      5 C5          2.4690    0.4169    5.2534 C.ar      1 <0>         0.0825
      6 C6          3.5927    0.0424    4.5168 C.ar      1 <0>         0.0825
      7 C7         -0.6202   -0.4449    1.7558 C.2       1 <0>        -0.1238
      8 C8         -0.5765   -0.5786    0.4180 C.2       1 <0>         0.1767
      9 C9         -1.2101   -1.6298    2.5073 C.2       1 <0>         0.4856
     10 C10        -1.5635   -2.7626    0.5152 C.2       1 <0>         0.7110
     11 C11         4.4149   -0.5948    0.9920 C.3       1 <0>         0.2800
     12 C12         1.3489    0.9478    7.2830 C.3       1 <0>         0.2800
     13 C13        -1.0091    0.9144   -1.3029 C.3       1 <0>         0.2800
     14 C14        -0.1445    0.7476    2.5228 C.3       1 <0>         0.2817
     15 N1         -1.6461   -2.7084    1.8921 N.2       1 <0>        -0.6610
     16 N2         -2.0066   -3.8477   -0.0446 N.2       1 <0>        -0.8500
     17 N3         -1.0373   -1.7126   -0.1996 N.pl3     1 <0>        -0.5500
     18 N4         -1.2973   -1.5864    3.8824 N.pl3     1 <0>        -0.8500
     19 O1          4.7793   -0.1814    5.1499 O.3       1 <0>        -0.5325
     20 O2          4.5926   -0.4684    2.4014 O.3       1 <0>        -0.3625
     21 O3          2.5436    0.5627    6.6059 O.3       1 <0>        -0.3625
     22 O4         -0.0659    0.4214   -0.3818 O.3       1 <0>        -0.3567
     23 H1          2.2209    0.0119    1.4055 H         1 <0>         0.1500
     24 H2          0.3804    0.9376    5.1821 H         1 <0>         0.1500
     25 H3          5.3599   -0.8906    0.5299 H         1 <0>         0.0000
     26 H4          4.0782    0.3595    0.5793 H         1 <0>         0.0000
     27 H5          3.6607   -1.3607    0.7961 H         1 <0>         0.0000
     28 H6          1.5464    1.0283    8.3548 H         1 <0>         0.0000
     29 H7          0.5694    0.2039    7.1002 H         1 <0>         0.0000
     30 H8          1.0210    1.9177    6.9015 H         1 <0>         0.0000
     31 H9         -0.5519    1.7012   -1.9078 H         1 <0>         0.0000
     32 H10        -1.8736    1.3102   -0.7639 H         1 <0>         0.0000
     33 H11        -1.3306    0.0979   -1.9538 H         1 <0>         0.0000
     34 H12        -0.9059    1.0299    3.2580 H         1 <0>         0.0000
     35 H13        -0.0541    1.5985    1.8396 H         1 <0>         0.0000
     36 H14        -1.8916   -3.7662   -1.0569 H         1 <0>         0.4000
     37 H15        -0.9768   -1.7516   -1.2107 H         1 <0>         0.4000
     38 H16        -0.9683   -0.7734    4.3416 H         1 <0>         0.4000
     39 H17        -1.6849   -2.3701    4.3468 H         1 <0>         0.4000
     40 H18         5.4595   -0.4322    4.5059 H         1 <0>         0.4500
@<TRIPOS>BOND
     1    1    3 ar
     2    1    4 ar
     3    2    3 ar
     4    2    5 ar
     5    3   14 1
     6    4    6 ar
     7    4   20 1
     8    5    6 ar
     9    5   21 1
    10    6   19 1
    11    7    8 2
    12    7    9 1
    13    7   14 1
    14    8   17 1
    15    8   22 1
    16    9   15 2
    17    9   18 1
    18   10   15 1
    19   10   16 2
    20   10   17 1
    21   11   20 1
    22   12   21 1
    23   13   22 1
    24    1   23 1
    25    2   24 1
    26   11   25 1
    27   11   26 1
    28   11   27 1
    29   12   28 1
    30   12   29 1
    31   12   30 1
    32   13   31 1
    33   13   32 1
    34   13   33 1
    35   14   34 1
    36   14   35 1
    37   16   36 1
    38   17   37 1
    39   18   38 1
    40   18   39 1
    41   19   40 1
