@<TRIPOS>MOLECULE
*****
   42    43     0     0     0
SMALL
USER_CHARGES

@<TRIPOS>ATOM
      1 C1         -3.4942   -1.5534    0.3788 C.ar      1 <0>        -0.1500
      2 C2         -4.7194    0.5226    0.5405 C.ar      1 <0>        -0.1500
      3 C3         -3.6303   -0.2029    0.0576 C.ar      1 <0>        -0.1435
      4 C4         -4.4474   -2.1785    1.1829 C.ar      1 <0>        -0.1435
      5 C5         -5.6725   -0.1024    1.3447 C.ar      1 <0>        -0.1435
      6 C6         -5.5365   -1.4530    1.6659 C.ar      1 <0>         0.0825
      7 C7         -3.7290    1.7553   -2.6654 C.2       1 <0>         0.0210
      8 C8         -3.0705    0.6666   -2.2135 C.2       1 <0>        -0.1238
      9 C9         -2.8149   -0.4054   -3.2438 C.2       1 <0>         0.4856
     10 C10        -3.9498    1.0473   -4.8094 C.2       1 <0>         0.2800
     11 C11        -4.2843   -3.6250    1.5160 C.3       1 <0>         0.1435
     12 C12        -6.7613    2.1691    1.3602 C.3       1 <0>         0.0000
     13 C13        -6.8594    0.7136    3.4116 C.3       1 <0>         0.0000
     14 C14        -8.2406    0.1716    1.4167 C.3       1 <0>         0.0000
     15 C15        -2.6016    0.4721   -0.8109 C.3       1 <0>         0.2817
     16 C16        -6.8312    0.6910    1.8524 C.3       1 <0>         0.1435
     17 N1         -4.1893    1.9952   -3.9491 N.2       1 <0>        -0.6210
     18 N2         -4.3422    1.1629   -6.0681 N.2       1 <0>        -0.9300
     19 N3         -2.1898   -1.4980   -2.9245 N.2       1 <0>        -0.8500
     20 N4         -3.2914   -0.1242   -4.5119 N.pl3     1 <0>        -0.5000
     21 O1         -6.4679   -2.0641    2.4527 O.3       1 <0>        -0.5325
     22 H1         -2.6452   -2.1188    0.0018 H         1 <0>         0.1500
     23 H2         -4.8233    1.5763    0.2916 H         1 <0>         0.1500
     24 H3         -3.9436    2.5631   -1.9710 H         1 <0>         0.1500
     25 H4         -3.7027   -3.7394    2.4382 H         1 <0>         0.0000
     26 H5         -5.2574   -4.1124    1.6538 H         1 <0>         0.0000
     27 H6         -3.7698   -4.1620    0.7094 H         1 <0>         0.0000
     28 H7         -7.6018    2.7743    1.7195 H         1 <0>         0.0000
     29 H8         -5.8439    2.6626    1.6992 H         1 <0>         0.0000
     30 H9         -6.7686    2.2053    0.2643 H         1 <0>         0.0000
     31 H10        -7.7077    1.2945    3.7897 H         1 <0>         0.0000
     32 H11        -6.9384   -0.2892    3.8474 H         1 <0>         0.0000
     33 H12        -5.9445    1.1755    3.8013 H         1 <0>         0.0000
     34 H13        -9.0576    0.7861    1.8138 H         1 <0>         0.0000
     35 H14        -8.3376    0.1746    0.3247 H         1 <0>         0.0000
     36 H15        -8.4063   -0.8523    1.7716 H         1 <0>         0.0000
     37 H16        -2.3388    1.4443   -0.3769 H         1 <0>         0.0000
     38 H17        -1.6743   -0.1127   -0.8184 H         1 <0>         0.0000
     39 H18        -5.3172    1.4734   -6.0804 H         1 <0>         0.1500
     40 H19        -2.1178   -2.0906   -3.7541 H         1 <0>         0.4000
     41 H20        -3.1505   -0.8070   -5.2507 H         1 <0>         0.4000
     42 H21        -6.2338   -2.9957    2.5844 H         1 <0>         0.4500
@<TRIPOS>BOND
     1    1    3 ar
     2    1    4 ar
     3    2    3 ar
     4    2    5 ar
     5    3   15 1
     6    4    6 ar
     7    4   11 1
     8    5    6 ar
     9    5   16 1
    10    6   21 1
    11    7    8 2
    12    7   17 1
    13    8    9 1
    14    8   15 1
    15    9   19 2
    16    9   20 1
    17   10   17 2
    18   10   18 1
    19   10   20 1
    20   12   16 1
    21   13   16 1
    22   14   16 1
    23    1   22 1
    24    2   23 1
    25    7   24 1
    26   11   25 1
    27   11   26 1
    28   11   27 1
    29   12   28 1
    30   12   29 1
    31   12   30 1
    32   13   31 1
    33   13   32 1
    34   13   33 1
    35   14   34 1
    36   14   35 1
    37   14   36 1
    38   15   37 1
    39   15   38 1
    40   18   39 1
    41   19   40 1
    42   20   41 1
    43   21   42 1
