@<TRIPOS>MOLECULE
*****
   26    28     0     0     0
SMALL
USER_CHARGES

@<TRIPOS>ATOM
      1 C1          3.8624   -3.5728   -3.0875 C.ar      1 <0>        -0.1500
      2 C2          4.3399   -2.4475   -2.4157 C.ar      1 <0>        -0.1500
      3 C3          2.4959   -3.8528   -3.0953 C.ar      1 <0>        -0.1500
      4 C4          3.4509   -1.6022   -1.7517 C.ar      1 <0>        -0.1500
      5 C5          1.6069   -3.0076   -2.4314 C.ar      1 <0>        -0.1500
      6 C6          2.0844   -1.8822   -1.7595 C.ar      1 <0>         0.0284
      7 C7          1.1538   -0.9982   -1.0649 C.2       1 <0>         0.1426
      8 C8         -0.5980    0.6148    0.3491 C.2       1 <0>        -0.1238
      9 C9          0.5932    0.0516   -1.7155 C.2       1 <0>         0.0018
     10 C10        -1.3045    1.0331    1.4003 C.2       1 <0>         0.2710
     11 C11         0.0894   -0.5476    0.8898 C.2       1 <0>         0.6466
     12 C12        -0.3775    1.0055   -1.0560 C.3       1 <0>         0.2764
     13 N1          0.9100   -1.3205    0.2632 N.2       1 <0>        -0.6210
     14 N2         -1.0824    0.2154    2.4905 N.2       1 <0>        -0.1710
     15 N3         -0.2733   -0.7061    2.2024 N.2       1 <0>        -0.2110
     16 N4         -2.1273    2.1219    1.3734 N.pl3     1 <0>        -0.9000
     17 Cl1         0.9232    0.4243   -3.3785 Cl        1 <0>        -0.1400
     18 H1          4.5544   -4.2303   -3.6055 H         1 <0>         0.1500
     19 H2          5.4037   -2.2286   -2.4104 H         1 <0>         0.1500
     20 H3          2.1239   -4.7283   -3.6193 H         1 <0>         0.1500
     21 H4          3.8382   -0.7288   -1.2324 H         1 <0>         0.1500
     22 H5          0.5446   -3.2393   -2.4466 H         1 <0>         0.1500
     23 H6         -1.3314    0.9895   -1.5957 H         1 <0>         0.0000
     24 H7          0.0246    2.0245   -1.0952 H         1 <0>         0.0000
     25 H8         -2.2087    2.6367    0.5242 H         1 <0>         0.4000
     26 H9         -2.6204    2.3673    2.2037 H         1 <0>         0.4000
@<TRIPOS>BOND
     1    1    2 ar
     2    1    3 ar
     3    2    4 ar
     4    3    5 ar
     5    4    6 ar
     6    5    6 ar
     7    6    7 1
     8    7    9 2
     9    7   13 1
    10    8   10 2
    11    8   11 1
    12    8   12 1
    13    9   12 1
    14    9   17 1
    15   10   14 1
    16   10   16 1
    17   11   13 2
    18   11   15 1
    19   14   15 2
    20    1   18 1
    21    2   19 1
    22    3   20 1
    23    4   21 1
    24    5   22 1
    25   12   23 1
    26   12   24 1
    27   16   25 1
    28   16   26 1
