@<TRIPOS>MOLECULE
*****
   30    31     0     0     0
SMALL
USER_CHARGES

@<TRIPOS>ATOM
      1 C1          1.8851   -1.0363   -0.1124 C.ar      1 <0>        -0.1500
      2 C2          0.8066   -0.4630    0.5610 C.ar      1 <0>        -0.1500
      3 C3         -1.6059    0.8959    5.8687 C.ar      1 <0>        -0.1500
      4 C4          2.9210   -1.6309    0.6081 C.ar      1 <0>        -0.1500
      5 C5          0.7638   -0.4841    1.9551 C.ar      1 <0>        -0.1500
      6 C6         -1.6634   -0.4743    5.6144 C.ar      1 <0>        -0.1500
      7 C7         -0.4544    1.6164    5.5515 C.ar      1 <0>        -0.1500
      8 C8          2.8783   -1.6520    2.0022 C.ar      1 <0>        -0.1435
      9 C9          1.7997   -1.0786    2.6757 C.ar      1 <0>         0.3640
     10 C10         0.5822   -0.4037    4.7258 C.ar      1 <0>         0.3640
     11 C11        -0.5694   -1.1242    5.0430 C.ar      1 <0>         0.1770
     12 C12         0.6397    0.9666    4.9801 C.ar      1 <0>         0.1770
     13 C13         3.6895   -3.7746    2.9661 C.2       1 <0>         0.9060
     14 C14         4.0002   -2.2948    2.7503 C.3       1 <0>         0.0375
     15 N1          1.7368   -1.0896    4.1226 N.4       1 <0>        -0.6280
     16 O1          3.5702   -4.4584    1.9103 O.co2     1 <0>        -0.9000
     17 O2          3.5807   -4.1306    4.1737 O.co2     1 <0>        -0.9000
     18 Cl1        -0.6853   -2.8217    4.7456 Cl        1 <0>        -0.1770
     19 Cl2         2.0440    1.8989    4.6030 Cl        1 <0>        -0.1770
     20 H1          1.9192   -1.0194   -1.1978 H         1 <0>         0.1500
     21 H2          0.0007    0.0006   -0.0002 H         1 <0>         0.1500
     22 H3         -2.4580    1.4019    6.3138 H         1 <0>         0.1500
     23 H4          3.7574   -2.0740    0.0741 H         1 <0>         0.1500
     24 H5         -0.0812   -0.0343    2.4699 H         1 <0>         0.1500
     25 H6         -2.5684   -1.0209    5.8674 H         1 <0>         0.1500
     26 H7         -0.4263    2.6837    5.7561 H         1 <0>         0.1500
     27 H8          4.9493   -2.1883    2.2039 H         1 <0>         0.0000
     28 H9          4.1589   -1.8012    3.7207 H         1 <0>         0.0000
     29 H10         1.7401   -2.0673    4.4635 H         1 <0>         0.4500
     30 H11         2.5977   -0.6658    4.5115 H         1 <0>         0.4500
@<TRIPOS>BOND
     1    1    2 ar
     2    1    4 ar
     3    2    5 ar
     4    3    6 ar
     5    3    7 ar
     6    4    8 ar
     7    5    9 ar
     8    6   11 ar
     9    7   12 ar
    10    8    9 ar
    11    8   14 1
    12    9   15 1
    13   10   11 ar
    14   10   12 ar
    15   10   15 1
    16   11   18 1
    17   12   19 1
    18   13   14 1
    19   13   16 1
    20   13   17 2
    21    1   20 1
    22    2   21 1
    23    3   22 1
    24    4   23 1
    25    5   24 1
    26    6   25 1
    27    7   26 1
    28   14   27 1
    29   14   28 1
    30   15   29 1
    31   15   30 1
