@<TRIPOS>MOLECULE
*****
   32    34     0     0     0
SMALL
USER_CHARGES

@<TRIPOS>ATOM
      1 C1         -0.0534    2.0720    0.5730 C.ar      1 <0>        -0.1500
      2 C2         -3.9270    8.2079    4.5902 C.ar      1 <0>        -0.1500
      3 C3         -0.6212    0.8254    0.3362 C.ar      1 <0>        -0.1500
      4 C4         -4.0960    6.8569    4.8933 C.ar      1 <0>        -0.1500
      5 C5         -0.8576    3.1232    1.0031 C.ar      1 <0>        -0.1500
      6 C6         -3.3221    8.5832    3.3906 C.ar      1 <0>        -0.1500
      7 C7         -1.9917    0.6313    0.5300 C.ar      1 <0>        -0.1500
      8 C8         -3.6601    5.8812    3.9969 C.ar      1 <0>        -0.1500
      9 C9         -2.2342    2.9251    1.1969 C.ar      1 <0>         0.0000
     10 C10        -2.8861    7.6075    2.4942 C.ar      1 <0>        -0.1435
     11 C11        -2.8211    1.6633    0.9597 C.ar      1 <0>         0.3100
     12 C12        -3.0551    6.2565    2.7973 C.ar      1 <0>         0.1000
     13 C13        -3.0725    3.9556    1.6272 C.ar      1 <0>         0.4610
     14 C14        -4.8650    2.5002    1.5543 C.ar      1 <0>         0.8480
     15 C15        -2.2416    8.0379    1.2169 C.3       1 <0>         0.1435
     16 N1         -4.1366    1.4450    1.1369 N.ar      1 <0>        -0.6200
     17 N2         -4.3778    3.7192    1.7976 N.ar      1 <0>        -0.1790
     18 N3         -2.6193    5.2534    1.9004 N.pl3     1 <0>        -0.6000
     19 Cl1        -6.5367    2.1830    1.7716 Cl        1 <0>        -0.1770
     20 H1          1.0113    2.2233    0.4244 H         1 <0>         0.1500
     21 H2         -4.2664    8.9676    5.2883 H         1 <0>         0.1500
     22 H3          0.0002   -0.0000    0.0010 H         1 <0>         0.1500
     23 H4         -4.5671    6.5649    5.8273 H         1 <0>         0.1500
     24 H5         -0.3907    4.0885    1.1824 H         1 <0>         0.1500
     25 H6         -3.1951    9.6385    3.1639 H         1 <0>         0.1500
     26 H7         -2.4105   -0.3546    0.3370 H         1 <0>         0.1500
     27 H8         -3.7972    4.8315    4.2440 H         1 <0>         0.1500
     28 H9         -1.1585    8.1354    1.3527 H         1 <0>         0.0000
     29 H10        -2.4301    7.3140    0.4149 H         1 <0>         0.0000
     30 H11        -2.6402    9.0019    0.8778 H         1 <0>         0.0000
     31 H12        -4.9963    4.4645    2.1120 H         1 <0>         0.4570
     32 H13        -1.8133    5.5378    1.3450 H         1 <0>         0.4000
@<TRIPOS>BOND
     1    1    3 ar
     2    1    5 ar
     3    2    4 ar
     4    2    6 ar
     5    3    7 ar
     6    4    8 ar
     7    5    9 ar
     8    6   10 ar
     9    7   11 ar
    10    8   12 ar
    11    9   11 ar
    12    9   13 ar
    13   10   12 ar
    14   10   15 1
    15   11   16 ar
    16   12   18 1
    17   13   17 ar
    18   13   18 1
    19   14   16 ar
    20   14   17 ar
    21   14   19 1
    22    1   20 1
    23    2   21 1
    24    3   22 1
    25    4   23 1
    26    5   24 1
    27    6   25 1
    28    7   26 1
    29    8   27 1
    30   15   28 1
    31   15   29 1
    32   15   30 1
    33   17   31 1
    34   18   32 1
