@<TRIPOS>MOLECULE
*****
   30    31     0     0     0
SMALL
USER_CHARGES

@<TRIPOS>ATOM
      1 C1         -4.4500    3.4819    4.4191 C.2       1 <0>        -0.1500
      2 C2         -3.5617    2.4420    4.0547 C.2       1 <0>        -0.1500
      3 C3         -3.9462    4.6302    3.8541 C.2       1 <0>        -0.0100
      4 C4         -2.5785    3.0291    3.2927 C.2       1 <0>        -0.0400
      5 C5          1.3971    0.1960    0.0863 C.2       1 <0>        -0.1500
      6 C6         -1.4287   -0.1868   -0.0743 C.2       1 <0>        -0.1356
      7 C7          0.8572   -0.6929   -0.7616 C.2       1 <0>        -0.0170
      8 C8         -0.5770   -0.8854   -0.8416 C.2       1 <0>         0.1400
      9 C9          0.5701    1.0083    0.9650 C.2       1 <0>         0.0144
     10 C10        -0.9201    0.8236    0.8978 C.2       1 <0>         0.3712
     11 C11         1.1330    1.8916    1.8051 C.2       1 <0>         0.6940
     12 C12        -1.3568    2.4952    2.6069 C.3       1 <0>         0.5261
     13 N1          1.6337   -3.0747   -1.2869 N.2       1 <0>        -0.6901
     14 N2         -1.7659    1.4743    1.6165 N.pl3     1 <0>        -0.1461
     15 O1          0.3105    2.6482    2.6276 O.co2     1 <0>        -0.8470
     16 O2          2.5154    2.0125    1.8177 O.co2     1 <0>        -0.8470
     17 O3          1.5977   -1.2784   -3.1266 O.2       1 <0>        -0.6500
     18 O4          3.2983   -1.1158   -1.3509 O.2       1 <0>        -0.6500
     19 O5         -2.8056    4.3628    3.1656 O.3       1 <0>        -0.2800
     20 S1          1.9652   -1.5840   -1.7410 S.o2      1 <0>         0.8571
     21 Cl1        -1.2309   -2.0447   -1.9522 Cl        1 <0>        -0.1400
     22 H1         -5.3452    3.4042    5.0189 H         1 <0>         0.1500
     23 H2         -3.6321    1.3959    4.3168 H         1 <0>         0.1500
     24 H3         -4.2644    5.6624    3.8488 H         1 <0>         0.1500
     25 H4          2.4736    0.3363    0.1420 H         1 <0>         0.1500
     26 H5         -2.5032   -0.3345   -0.1376 H         1 <0>         0.1500
     27 H6         -0.8122    3.2906    2.0877 H         1 <0>         0.0000
     28 H7         -0.6677    2.0345    3.3225 H         1 <0>         0.0000
     29 H8          2.2396   -3.7186   -1.8075 H         1 <0>         0.1500
     30 H9         -2.7720    1.2749    1.5053 H         1 <0>         0.4000
@<TRIPOS>BOND
     1    1    2 1
     2    1    3 2
     3    2    4 2
     4    3   19 1
     5    4   12 1
     6    4   19 1
     7    5    7 2
     8    5    9 1
     9    6    8 2
    10    6   10 1
    11    7    8 1
    12    7   20 1
    13    8   21 1
    14    9   10 1
    15    9   11 2
    16   10   14 2
    17   11   15 1
    18   11   16 1
    19   12   14 1
    20   13   20 1
    21   17   20 2
    22   18   20 2
    23    1   22 1
    24    2   23 1
    25    3   24 1
    26    5   25 1
    27    6   26 1
    28   12   27 1
    29   12   28 1
    30   13   29 1
    31   14   30 1
