@<TRIPOS>MOLECULE
*****
   39    40     0     0     0
SMALL
USER_CHARGES

@<TRIPOS>ATOM
      1 C1          2.6392    2.5266    1.8904 C.ar      1 <0>        -0.1500
      2 C2          3.4140    2.7441   -0.3876 C.ar      1 <0>        -0.1500
      3 C3          2.3701    2.5797    0.5228 C.ar      1 <0>        -0.1435
      4 C4          4.9962    2.8025    1.4372 C.ar      1 <0>        -0.1710
      5 C5          3.9523    2.6381    2.3476 C.ar      1 <0>         0.0825
      6 C6          4.7271    2.8556    0.0696 C.ar      1 <0>         0.0825
      7 C7          0.4531    1.0499    0.0624 C.2       1 <0>        -0.1238
      8 C8         -0.4135    0.5505    0.9615 C.2       1 <0>         0.1767
      9 C9          0.9525    0.1013   -0.9926 C.2       1 <0>         0.6466
     10 C10        -0.3319   -1.5973   -0.0768 C.2       1 <0>         0.5500
     11 C11         4.4008    1.2920    4.2562 C.3       1 <0>         0.2800
     12 C12         6.3153    1.8294   -1.3728 C.3       1 <0>         0.2800
     13 C13        -2.3356    1.4257    1.9191 C.3       1 <0>         0.2800
     14 C14         0.9541    2.4595    0.0298 C.3       1 <0>         0.2817
     15 N1          0.5134   -1.2096   -0.9970 N.2       1 <0>        -0.6610
     16 N2          1.7883    0.4638   -1.9107 N.2       1 <0>        -0.8500
     17 N3         -0.8098   -0.7596    0.9028 N.pl3     1 <0>        -0.5500
     18 N4         -0.8204   -2.8756   -0.0033 N.pl3     1 <0>        -0.8500
     19 O1          6.2056    2.9052    1.8583 O.3       1 <0>        -0.8290
     20 O2          4.1667    2.5804    3.6961 O.3       1 <0>        -0.3625
     21 O3          5.7162    3.0154   -0.8598 O.3       1 <0>        -0.3625
     22 O4         -0.9318    1.3344    1.9692 O.3       1 <0>        -0.3567
     23 H1          1.8262    2.3984    2.6011 H         1 <0>         0.1500
     24 H2          3.2054    2.7856   -1.4540 H         1 <0>         0.1500
     25 H3          4.5561    1.3851    5.3339 H         1 <0>         0.0000
     26 H4          5.2810    0.8446    3.7878 H         1 <0>         0.0000
     27 H5          3.5298    0.6595    4.0693 H         1 <0>         0.0000
     28 H6          7.0850    2.0950   -2.1016 H         1 <0>         0.0000
     29 H7          5.5499    1.2084   -1.8451 H         1 <0>         0.0000
     30 H8          6.7724    1.2769   -0.5485 H         1 <0>         0.0000
     31 H9         -2.6900    2.0566    2.7379 H         1 <0>         0.0000
     32 H10        -2.7698    0.4260    2.0010 H         1 <0>         0.0000
     33 H11        -2.6291    1.8712    0.9656 H         1 <0>         0.0000
     34 H12         0.2970    3.0884    0.6397 H         1 <0>         0.0000
     35 H13         0.8751    2.8418   -0.9930 H         1 <0>         0.0000
     36 H14         1.9883   -0.3372   -2.5161 H         1 <0>         0.4000
     37 H15        -1.4645   -1.0863    1.6039 H         1 <0>         0.4000
     38 H16        -0.5167   -3.5355   -0.6814 H         1 <0>         0.4000
     39 H17        -1.4599   -3.0945    0.7253 H         1 <0>         0.4000
@<TRIPOS>BOND
     1    1    3 ar
     2    1    5 ar
     3    2    3 ar
     4    2    6 ar
     5    3   14 1
     6    4    5 ar
     7    4    6 ar
     8    4   19 1
     9    5   20 1
    10    6   21 1
    11    7    8 2
    12    7    9 1
    13    7   14 1
    14    8   17 1
    15    8   22 1
    16    9   15 1
    17    9   16 2
    18   10   15 2
    19   10   17 1
    20   10   18 1
    21   11   20 1
    22   12   21 1
    23   13   22 1
    24    1   23 1
    25    2   24 1
    26   11   25 1
    27   11   26 1
    28   11   27 1
    29   12   28 1
    30   12   29 1
    31   12   30 1
    32   13   31 1
    33   13   32 1
    34   13   33 1
    35   14   34 1
    36   14   35 1
    37   16   36 1
    38   17   37 1
    39   18   38 1
    40   18   39 1
