@<TRIPOS>MOLECULE
*****
   47    50     0     0     0
SMALL
USER_CHARGES

@<TRIPOS>ATOM
      1 C1         -0.7592   -6.2287   -5.7019 C.ar      1 <0>        -0.1500
      2 C2         -1.3283   -5.1567   -6.4190 C.ar      1 <0>        -0.1500
      3 C3         -0.8527   -6.2965   -4.3096 C.ar      1 <0>        -0.1500
      4 C4         -2.0061   -4.1235   -5.7630 C.ar      1 <0>        -0.1500
      5 C5         -4.4620   -4.2098    5.7585 C.ar      1 <0>         0.1600
      6 C6         -2.6705   -2.8597    6.4096 C.ar      1 <0>         0.1600
      7 C7         -3.8770   -2.9600    5.7474 C.ar      1 <0>        -0.1435
      8 C8         -1.5208   -5.2756   -3.6721 C.ar      1 <0>         0.1000
      9 C9         -2.0976   -4.1902   -4.3885 C.ar      1 <0>         0.1000
     10 C10        -2.7416   -5.0597    6.9770 C.ar      1 <0>         0.7025
     11 C11        -5.2207   -2.4206    2.7439 C.2       1 <0>         0.1910
     12 C12        -4.3477   -1.8294    3.5732 C.2       1 <0>        -0.1238
     13 C13        -3.1435   -1.1784    2.9940 C.2       1 <0>         0.9366
     14 C14        -2.4911   -3.8914   -2.1832 C.2       1 <0>         0.2000
     15 C15        -3.9922   -1.8828    0.8246 C.cat     1 <0>         0.8398
     16 C16        -2.9035   -3.3992   -1.0048 C.2       1 <0>        -0.0490
     17 C17        -3.3921   -2.1270   -3.8569 C.3       1 <0>         0.3691
     18 C18        -2.8666   -7.3653    7.5465 C.3       1 <0>         0.2800
     19 C19        -4.5128   -1.7833    5.0572 C.3       1 <0>         0.2817
     20 N1         -3.9200   -5.2858    6.3658 N.ar      1 <0>        -0.6200
     21 N2         -2.0719   -3.8929    7.0377 N.ar      1 <0>        -0.6200
     22 N3         -1.7708   -5.0780   -2.3116 N.pl3     1 <0>        -0.6000
     23 N4         -3.0691   -1.2713    1.5630 N.am      1 <0>        -0.6854
     24 N5         -2.7000   -3.3265   -3.4562 N.pl3     1 <0>        -0.5691
     25 N6         -5.0557   -2.4539    1.3786 N.pl3     1 <0>        -0.6454
     26 O1         -2.2722   -0.6069    3.6279 O.2       1 <0>        -0.5700
     27 O2         -2.1603   -6.1347    7.6084 O.3       1 <0>        -0.3625
     28 S1         -3.7924   -1.9283   -0.8843 S.3       1 <0>        -0.2320
     29 H1         -0.2389   -7.0146   -6.2437 H         1 <0>         0.1500
     30 H2         -1.2367   -5.1342   -7.5022 H         1 <0>         0.1500
     31 H3         -0.4143   -7.1220   -3.7611 H         1 <0>         0.1500
     32 H4         -2.4380   -3.3058   -6.3286 H         1 <0>         0.1500
     33 H5         -5.4113   -4.3930    5.2652 H         1 <0>         0.1500
     34 H6         -2.1302   -1.9194    6.4591 H         1 <0>         0.1500
     35 H7         -6.1147   -2.9092    3.1149 H         1 <0>         0.1500
     36 H8         -2.6755   -3.9373   -0.0947 H         1 <0>         0.1500
     37 H9         -4.4530   -2.3571   -4.0344 H         1 <0>         0.0000
     38 H10        -3.3089   -1.3725   -3.0608 H         1 <0>         0.0000
     39 H11        -2.9423   -1.7357   -4.7813 H         1 <0>         0.0000
     40 H12        -2.3057   -8.1355    8.0815 H         1 <0>         0.0000
     41 H13        -3.0014   -7.6570    6.5019 H         1 <0>         0.0000
     42 H14        -3.8448   -7.2378    8.0162 H         1 <0>         0.0000
     43 H15        -5.5806   -1.7481    5.3014 H         1 <0>         0.0000
     44 H16        -4.0864   -0.8480    5.4363 H         1 <0>         0.0000
     45 H17        -1.4955   -5.6694   -1.5469 H         1 <0>         0.4000
     46 H18        -2.2866   -0.8600    1.0631 H         1 <0>         0.4500
     47 H19        -5.7442   -2.9135    0.7931 H         1 <0>         0.4500
@<TRIPOS>BOND
     1    1    2 ar
     2    1    3 ar
     3    2    4 ar
     4    3    8 ar
     5    4    9 ar
     6    5    7 ar
     7    5   20 ar
     8    6    7 ar
     9    6   21 ar
    10    7   19 1
    11    8    9 ar
    12    8   22 1
    13    9   24 1
    14   10   20 ar
    15   10   21 ar
    16   10   27 1
    17   11   12 2
    18   11   25 1
    19   12   13 1
    20   12   19 1
    21   13   23 am
    22   13   26 2
    23   14   16 2
    24   14   22 1
    25   14   24 1
    26   15   23 1
    27   15   25 2
    28   15   28 1
    29   16   28 1
    30   17   24 1
    31   18   27 1
    32    1   29 1
    33    2   30 1
    34    3   31 1
    35    4   32 1
    36    5   33 1
    37    6   34 1
    38   11   35 1
    39   16   36 1
    40   17   37 1
    41   17   38 1
    42   17   39 1
    43   18   40 1
    44   18   41 1
    45   18   42 1
    46   19   43 1
    47   19   44 1
    48   22   45 1
    49   23   46 1
    50   25   47 1
