@<TRIPOS>MOLECULE
*****
   27    27     0     0     0
SMALL
USER_CHARGES

@<TRIPOS>ATOM
      1 C1          1.8851   -1.0363   -0.1124 C.ar      1 <0>        -0.1500
      2 C2          2.8783   -1.6520    2.0022 C.ar      1 <0>        -0.1500
      3 C3          0.8066   -0.4630    0.5610 C.ar      1 <0>        -0.1500
      4 C4          1.7997   -1.0786    2.6757 C.ar      1 <0>        -0.1500
      5 C5          2.9210   -1.6309    0.6081 C.ar      1 <0>        -0.1435
      6 C6          0.7638   -0.4841    1.9551 C.ar      1 <0>        -0.0090
      7 C7          5.0798   -4.3090   -1.1437 C.2       1 <0>         0.6590
      8 C8         -1.7603   -1.0894    2.9632 C.3       1 <0>         0.1052
      9 C9          4.0740   -2.2446   -0.1116 C.3       1 <0>         0.1435
     10 C10         3.8727   -3.7267   -0.4488 C.3       1 <0>         0.0610
     11 O1          6.0956   -3.6724   -1.3928 O.2       1 <0>        -0.5700
     12 O2         -0.1350    0.6029    4.1333 O.2       1 <0>        -0.6500
     13 O3         -1.1966    1.2405    1.9396 O.2       1 <0>        -0.6500
     14 O4          4.9125   -5.6088   -1.4911 O.3       1 <0>        -0.6500
     15 S1         -0.5850    0.2354    2.7982 S.o2      1 <0>         1.2038
     16 H1          1.9097   -1.0154   -1.1987 H         1 <0>         0.1500
     17 H2          3.6806   -2.1133    2.5719 H         1 <0>         0.1500
     18 H3          0.0045   -0.0029   -0.0100 H         1 <0>         0.1500
     19 H4          1.7763   -1.1011    3.7620 H         1 <0>         0.1500
     20 H5         -2.6382   -0.7077    3.4867 H         1 <0>         0.0000
     21 H6         -2.0311   -1.4358    1.9647 H         1 <0>         0.0000
     22 H7         -1.2943   -1.8939    3.5340 H         1 <0>         0.0000
     23 H8          4.2948   -1.6862   -1.0375 H         1 <0>         0.0000
     24 H9          4.9824   -2.1464    0.5062 H         1 <0>         0.0000
     25 H10         3.7246   -4.3090    0.4690 H         1 <0>         0.0000
     26 H11         2.9728   -3.8884   -1.0529 H         1 <0>         0.0000
     27 H12         5.6678   -6.0190   -1.9637 H         1 <0>         0.5000
@<TRIPOS>BOND
     1    1    3 ar
     2    1    5 ar
     3    2    4 ar
     4    2    5 ar
     5    3    6 ar
     6    4    6 ar
     7    5    9 1
     8    6   15 1
     9    7   10 1
    10    7   11 2
    11    7   14 1
    12    8   15 1
    13    9   10 1
    14   12   15 2
    15   13   15 2
    16    1   16 1
    17    2   17 1
    18    3   18 1
    19    4   19 1
    20    8   20 1
    21    8   21 1
    22    8   22 1
    23    9   23 1
    24    9   24 1
    25   10   25 1
    26   10   26 1
    27   14   27 1
