@<TRIPOS>MOLECULE
*****
   26    28     0     0     0
SMALL
USER_CHARGES

@<TRIPOS>ATOM
      1 C1          4.4994   -3.8632   -1.6786 C.ar      1 <0>        -0.1500
      2 C2          4.8154   -2.6451   -1.0768 C.ar      1 <0>        -0.1500
      3 C3          3.1704   -4.1759   -1.9645 C.ar      1 <0>        -0.1500
      4 C4          3.8024   -1.7398   -0.7610 C.ar      1 <0>        -0.1500
      5 C5          2.1574   -3.2705   -1.6486 C.ar      1 <0>        -0.1500
      6 C6          2.4734   -2.0525   -1.0469 C.ar      1 <0>         0.0284
      7 C7          1.4159   -1.1081   -0.7174 C.2       1 <0>         0.0716
      8 C8         -0.6082    0.5555    0.1630 C.2       1 <0>        -0.1238
      9 C9          0.9959   -0.1542   -1.5846 C.2       1 <0>         0.0018
     10 C10        -0.1625   -0.3990    0.9875 C.2       1 <0>         0.2710
     11 C11        -1.6273    1.1819    0.9755 C.2       1 <0>         0.6466
     12 C12        -0.1143    0.8197   -1.2117 C.3       1 <0>         0.2764
     13 N1         -0.8234   -0.3832    2.1894 N.2       1 <0>        -0.1710
     14 N2         -1.6833    0.5391    2.1918 N.2       1 <0>        -0.2110
     15 N3         -2.3838    2.1726    0.6685 N.2       1 <0>        -0.8500
     16 N4          0.8488   -1.2284    0.5448 N.pl3     1 <0>        -0.6000
     17 Cl1         1.6531    0.0578   -3.1690 Cl        1 <0>        -0.1400
     18 H1          5.2882   -4.5676   -1.9257 H         1 <0>         0.1500
     19 H2          5.8503   -2.4010   -0.8551 H         1 <0>         0.1500
     20 H3          2.9244   -5.1238   -2.4341 H         1 <0>         0.1500
     21 H4          4.0643   -0.7943   -0.2920 H         1 <0>         0.1500
     22 H5          1.1263   -3.5288   -1.8778 H         1 <0>         0.1500
     23 H6         -0.9432    0.7189   -1.9219 H         1 <0>         0.0000
     24 H7          0.2637    1.8468   -1.2704 H         1 <0>         0.0000
     25 H8         -3.0066    2.3870    1.4565 H         1 <0>         0.4000
     26 H9          1.1837   -1.9498    1.1715 H         1 <0>         0.4000
@<TRIPOS>BOND
     1    1    2 ar
     2    1    3 ar
     3    2    4 ar
     4    3    5 ar
     5    4    6 ar
     6    5    6 ar
     7    6    7 1
     8    7    9 2
     9    7   16 1
    10    8   10 2
    11    8   11 1
    12    8   12 1
    13    9   12 1
    14    9   17 1
    15   10   13 1
    16   10   16 1
    17   11   14 1
    18   11   15 2
    19   13   14 2
    20    1   18 1
    21    2   19 1
    22    3   20 1
    23    4   21 1
    24    5   22 1
    25   12   23 1
    26   12   24 1
    27   15   25 1
    28   16   26 1
