@<TRIPOS>MOLECULE
*****
   30    31     0     0     0
SMALL
USER_CHARGES

@<TRIPOS>ATOM
      1 C1          1.4833    0.2498    1.4784 C.ar      1 <0>        -0.1500
      2 C2          0.8190   -0.5039    0.5108 C.ar      1 <0>        -0.1500
      3 C3          5.8937   -3.6254    4.5703 C.2       1 <0>        -0.1500
      4 C4          6.4901   -4.3454    5.6456 C.2       1 <0>        -0.1500
      5 C5          2.2139   -2.4058    1.0346 C.ar      1 <0>        -0.1500
      6 C6          2.5130   -0.3242    2.2241 C.ar      1 <0>        -0.1435
      7 C7          2.8783   -1.6520    2.0022 C.ar      1 <0>         0.1790
      8 C8          1.1843   -1.8317    0.2890 C.ar      1 <0>         0.1770
      9 C9          4.5307   -3.4997    4.7248 C.2       1 <0>        -0.0450
     10 C10         5.5599   -4.7423    6.5812 C.2       1 <0>        -0.1400
     11 C11         3.5580   -2.8322    3.8432 C.2       1 <0>         0.4750
     12 C12         3.2095    0.5032    3.2544 C.3       1 <0>         0.1435
     13 C13         5.7787   -5.5016    7.8312 C.3       1 <0>         0.7400
     14 N1          3.9095   -2.2444    2.7416 N.2       1 <0>        -0.6290
     15 O1          6.3397   -6.7824    7.5265 O.3       1 <0>        -0.6800
     16 O2          6.6545   -4.7699    8.6950 O.3       1 <0>        -0.6800
     17 S1          3.9752   -4.2476    6.1615 S.3       1 <0>        -0.0800
     18 Cl1         0.3648   -2.7608   -0.9056 Cl        1 <0>        -0.1770
     19 H1          1.1915    1.2836    1.6437 H         1 <0>         0.1500
     20 H2          0.0188   -0.0434   -0.0629 H         1 <0>         0.1500
     21 H3          6.4414   -3.2222    3.7279 H         1 <0>         0.1500
     22 H4          7.5484   -4.5590    5.7252 H         1 <0>         0.1500
     23 H5          2.5022   -3.4409    0.8648 H         1 <0>         0.1500
     24 H6          2.4996   -2.8526    4.1657 H         1 <0>         0.0600
     25 H7          2.7046    0.4079    4.2225 H         1 <0>         0.0000
     26 H8          4.2545    0.1915    3.3726 H         1 <0>         0.0000
     27 H9          3.2224    1.5624    2.9692 H         1 <0>         0.0000
     28 H10         4.8330   -5.6719    8.3802 H         1 <0>         0.0000
     29 H11         6.4733   -7.2601    8.3628 H         1 <0>         0.4000
     30 H12         6.7814   -5.2894    9.5070 H         1 <0>         0.4000
@<TRIPOS>BOND
     1    1    2 ar
     2    1    6 ar
     3    2    8 ar
     4    3    4 1
     5    3    9 2
     6    4   10 2
     7    5    7 ar
     8    5    8 ar
     9    6    7 ar
    10    6   12 1
    11    7   14 1
    12    8   18 1
    13    9   11 1
    14    9   17 1
    15   10   13 1
    16   10   17 1
    17   11   14 2
    18   13   15 1
    19   13   16 1
    20    1   19 1
    21    2   20 1
    22    3   21 1
    23    4   22 1
    24    5   23 1
    25   11   24 1
    26   12   25 1
    27   12   26 1
    28   12   27 1
    29   13   28 1
    30   15   29 1
    31   16   30 1
