@<TRIPOS>MOLECULE
*****
   28    29     0     0     0
SMALL
USER_CHARGES

@<TRIPOS>ATOM
      1 C1          3.7453   -2.1551   -0.5372 C.1       1 <0>         0.4841
      2 C2          2.9238   -0.4024    0.9254 C.ar      1 <0>        -0.1500
      3 C3          1.9230    0.1646    1.7143 C.ar      1 <0>        -0.1500
      4 C4          0.4549   -1.6770    1.1757 C.ar      1 <0>        -0.1500
      5 C5          2.6901   -1.6068    0.2615 C.ar      1 <0>         0.0730
      6 C6          0.6886   -0.4727    1.8395 C.ar      1 <0>         0.3490
      7 C7          1.4557   -2.2441    0.3867 C.ar      1 <0>         0.1770
      8 C8         -0.5016    3.6985    3.0393 C.2       1 <0>         0.2470
      9 C9         -1.5971    3.5158    3.8492 C.2       1 <0>        -0.1400
     10 C10        -0.6356    1.4308    2.9740 C.cat     1 <0>         0.8250
     11 C11         0.1091    4.9379    2.6712 C.2       1 <0>         0.8060
     12 C12        -2.4362    4.5073    4.5525 C.3       1 <0>         0.1800
     13 N1          4.6003   -2.5992   -1.1842 N.1       1 <0>        -0.5571
     14 N2          0.0053    2.5068    2.5711 N.pl3     1 <0>        -0.6830
     15 N3         -0.2821    0.0764    2.6091 N.pl3     1 <0>        -0.6310
     16 O1         -0.2559    6.0783    3.0291 O.2       1 <0>        -0.5700
     17 O2          1.1938    4.7872    1.8467 O.3       1 <0>        -0.6500
     18 S1         -1.9493    1.8379    3.9910 S.3       1 <0>        -0.1330
     19 Cl1         1.1147   -3.7419   -0.4082 Cl        1 <0>        -0.1770
     20 H1          3.8807    0.1075    0.8404 H         1 <0>         0.1500
     21 H2          2.1130    1.1026    2.2293 H         1 <0>         0.1500
     22 H3         -0.5105   -2.1676    1.2791 H         1 <0>         0.1500
     23 H4         -3.2780    4.8334    3.9205 H         1 <0>         0.0000
     24 H5         -2.8560    4.1028    5.4888 H         1 <0>         0.0000
     25 H6         -1.8625    5.4053    4.8377 H         1 <0>         0.0000
     26 H7          0.8138    2.4234    1.9574 H         1 <0>         0.4500
     27 H8         -0.9445   -0.5857    3.0595 H         1 <0>         0.4500
     28 H9          1.6206    5.6321    1.5889 H         1 <0>         0.5000
@<TRIPOS>BOND
     1    1    5 1
     2    1   13 3
     3    2    3 ar
     4    2    5 ar
     5    3    6 ar
     6    4    6 ar
     7    4    7 ar
     8    5    7 ar
     9    6   15 1
    10    7   19 1
    11    8    9 2
    12    8   11 1
    13    8   14 1
    14    9   12 1
    15    9   18 1
    16   10   14 2
    17   10   15 1
    18   10   18 1
    19   11   16 2
    20   11   17 1
    21    2   20 1
    22    3   21 1
    23    4   22 1
    24   12   23 1
    25   12   24 1
    26   12   25 1
    27   14   26 1
    28   15   27 1
    29   17   28 1
