@<TRIPOS>MOLECULE
*****
   39    40     0     0     0
SMALL
USER_CHARGES

@<TRIPOS>ATOM
      1 C1         -0.0057    4.0272    0.5506 C.ar      1 <0>        -0.1500
      2 C2          2.2902    3.7654   -0.1545 C.ar      1 <0>        -0.1500
      3 C3          0.9495    3.3903   -0.2415 C.ar      1 <0>        -0.1435
      4 C4          1.7203    5.4144    1.5168 C.ar      1 <0>        -0.1710
      5 C5          0.3797    5.0393    1.4297 C.ar      1 <0>         0.0825
      6 C6          2.6756    4.7775    0.7247 C.ar      1 <0>         0.0825
      7 C7          0.2659    1.0033   -0.4904 C.2       1 <0>        -0.1238
      8 C8         -0.9534    0.4707   -0.2420 C.2       1 <0>         0.2477
      9 C9          1.4393    0.1973   -0.0081 C.2       1 <0>         0.4856
     10 C10        -0.1659   -1.4156    0.8177 C.2       1 <0>         0.5500
     11 C11        -0.8670    5.0507    3.4549 C.3       1 <0>         0.2800
     12 C12         4.8063    4.4038    1.7128 C.3       1 <0>         0.2800
     13 C13        -3.2701    0.4992   -0.3391 C.3       1 <0>         0.2800
     14 C14         0.5340    2.2990   -1.1895 C.3       1 <0>         0.2817
     15 N1         -1.2045   -0.7305    0.4062 N.2       1 <0>        -0.6210
     16 N2          2.6544    0.6188   -0.1958 N.2       1 <0>        -0.8500
     17 N3          1.1312   -0.9853    0.6281 N.pl3     1 <0>        -0.5000
     18 N4         -0.2683   -2.6157    1.4706 N.pl3     1 <0>        -0.8500
     19 O1          2.0752    6.3465    2.3265 O.3       1 <0>        -0.8290
     20 O2         -0.5917    5.6340    2.1851 O.3       1 <0>        -0.3625
     21 O3          4.0001    5.1103    0.7751 O.3       1 <0>        -0.3625
     22 O4         -2.0771    1.1661   -0.6619 O.3       1 <0>        -0.3567
     23 H1         -1.0512    3.7356    0.4837 H         1 <0>         0.1500
     24 H2          3.0359    3.2696   -0.7715 H         1 <0>         0.1500
     25 H3         -1.6573    5.6174    3.9533 H         1 <0>         0.0000
     26 H4          0.0403    5.0571    4.0642 H         1 <0>         0.0000
     27 H5         -1.1979    4.0198    3.3084 H         1 <0>         0.0000
     28 H6          5.8366    4.7628    1.6521 H         1 <0>         0.0000
     29 H7          4.7685    3.3337    1.4937 H         1 <0>         0.0000
     30 H8          4.4196    4.5815    2.7191 H         1 <0>         0.0000
     31 H9         -4.1227    1.0858   -0.6899 H         1 <0>         0.0000
     32 H10        -3.3300    0.3611    0.7434 H         1 <0>         0.0000
     33 H11        -3.2757   -0.4769   -0.8298 H         1 <0>         0.0000
     34 H12        -0.3654    2.6062   -1.7335 H         1 <0>         0.0000
     35 H13         1.3074    2.1407   -1.9479 H         1 <0>         0.0000
     36 H14         3.3033   -0.0637    0.2005 H         1 <0>         0.4000
     37 H15         1.8911   -1.5650    0.9722 H         1 <0>         0.4000
     38 H16        -1.1758   -2.9842    1.6400 H         1 <0>         0.4000
     39 H17         0.5685   -3.0732    1.7504 H         1 <0>         0.4000
@<TRIPOS>BOND
     1    1    3 ar
     2    1    5 ar
     3    2    3 ar
     4    2    6 ar
     5    3   14 1
     6    4    5 ar
     7    4    6 ar
     8    4   19 1
     9    5   20 1
    10    6   21 1
    11    7    8 2
    12    7    9 1
    13    7   14 1
    14    8   15 1
    15    8   22 1
    16    9   16 2
    17    9   17 1
    18   10   15 2
    19   10   17 1
    20   10   18 1
    21   11   20 1
    22   12   21 1
    23   13   22 1
    24    1   23 1
    25    2   24 1
    26   11   25 1
    27   11   26 1
    28   11   27 1
    29   12   28 1
    30   12   29 1
    31   12   30 1
    32   13   31 1
    33   13   32 1
    34   13   33 1
    35   14   34 1
    36   14   35 1
    37   16   36 1
    38   17   37 1
    39   18   38 1
    40   18   39 1
