@<TRIPOS>MOLECULE
*****
   29    30     0     0     0
SMALL
USER_CHARGES

@<TRIPOS>ATOM
      1 C1          1.9548   -1.0313   -0.1094 C.ar      1 <0>        -0.1500
      2 C2          2.8554   -0.2864    0.6521 C.ar      1 <0>        -0.1500
      3 C3          3.3535   -0.2289    7.3045 C.ar      1 <0>        -0.1500
      4 C4          0.9766   -1.7997    0.5217 C.ar      1 <0>        -0.1500
      5 C5          4.6647   -0.6371    7.0603 C.ar      1 <0>        -0.1500
      6 C6          2.7779   -0.3101    2.0446 C.ar      1 <0>        -0.1500
      7 C7          2.3807   -0.3792    6.3162 C.ar      1 <0>        -0.1500
      8 C8          4.0304   -1.3457    4.8394 C.ar      1 <0>        -0.1500
      9 C9          0.8991   -1.8234    1.9142 C.ar      1 <0>        -0.1790
     10 C10         5.0032   -1.1955    5.8278 C.ar      1 <0>        -0.1435
     11 C11         2.7192   -0.9376    5.0836 C.ar      1 <0>         0.1000
     12 C12         1.7997   -1.0786    2.6757 C.ar      1 <0>         0.1000
     13 C13        -0.1451   -2.6442    2.5558 C.2       1 <0>         0.9790
     14 C14         6.4053   -1.6311    5.5668 C.3       1 <0>         1.1635
     15 N1          1.7379   -1.0895    4.0870 N.pl3     1 <0>        -0.6000
     16 O1          0.1251   -3.8674    2.8484 O.co2     1 <0>        -0.9000
     17 O2         -1.2885   -2.1074    2.7994 O.co2     1 <0>        -0.9000
     18 F1          7.2485   -1.4236    6.6214 F         1 <0>        -0.3400
     19 F2          6.5197   -2.9608    5.2761 F         1 <0>        -0.3400
     20 F3          6.9712   -0.9758    4.5116 F         1 <0>        -0.3400
     21 H1          2.0154   -1.0134   -1.1936 H         1 <0>         0.1500
     22 H2          3.6179    0.3112    0.1611 H         1 <0>         0.1500
     23 H3          3.0899    0.2059    8.2645 H         1 <0>         0.1500
     24 H4          0.2805   -2.3766   -0.0819 H         1 <0>         0.1500
     25 H5          5.4163   -0.5162    7.8363 H         1 <0>         0.1500
     26 H6          3.4846    0.2745    2.6279 H         1 <0>         0.1500
     27 H7          1.3618   -0.0580    6.5172 H         1 <0>         0.1500
     28 H8          4.2960   -1.7816    3.8789 H         1 <0>         0.1500
     29 H9          0.8014   -1.2349    4.4499 H         1 <0>         0.4000
@<TRIPOS>BOND
     1    1    2 ar
     2    1    4 ar
     3    2    6 ar
     4    3    5 ar
     5    3    7 ar
     6    4    9 ar
     7    5   10 ar
     8    6   12 ar
     9    7   11 ar
    10    8   10 ar
    11    8   11 ar
    12    9   12 ar
    13    9   13 1
    14   10   14 1
    15   11   15 1
    16   12   15 1
    17   13   16 1
    18   13   17 2
    19   14   18 1
    20   14   19 1
    21   14   20 1
    22    1   21 1
    23    2   22 1
    24    3   23 1
    25    4   24 1
    26    5   25 1
    27    6   26 1
    28    7   27 1
    29    8   28 1
    30   15   29 1
