@<TRIPOS>MOLECULE
*****
   41    42     0     0     0
SMALL
USER_CHARGES

@<TRIPOS>ATOM
      1 C1         -2.1298   -2.6655   -3.0550 C.ar      1 <0>        -0.1500
      2 C2         -3.2615   -2.0695   -1.0054 C.ar      1 <0>        -0.1500
      3 C3         -2.4013   -1.7356   -2.0514 C.ar      1 <0>        -0.1435
      4 C4         -2.7186   -3.9293   -3.0126 C.ar      1 <0>        -0.1435
      5 C5         -3.8503   -3.3333   -0.9629 C.ar      1 <0>        -0.1435
      6 C6         -3.5788   -4.2632   -1.9666 C.ar      1 <0>        -0.1710
      7 C7         -3.5126    1.4298   -1.7853 C.2       1 <0>        -0.3500
      8 C8         -2.7054    0.6883   -2.5609 C.2       1 <0>        -0.1238
      9 C9         -2.8176    1.0132   -4.0001 C.2       1 <0>         0.6466
     10 C10        -4.4190    2.6243   -3.4574 C.2       1 <0>         0.2800
     11 C11        -2.3876   -4.8846   -4.1195 C.3       1 <0>         0.1435
     12 C12        -4.8758   -2.4094    1.1443 C.3       1 <0>         0.0000
     13 C13        -4.2423   -4.8421    1.0161 C.3       1 <0>         0.0000
     14 C14        -6.2320   -3.9935   -0.2096 C.3       1 <0>         0.0000
     15 C15        -1.7654   -0.3704   -2.0972 C.3       1 <0>         0.2817
     16 C16        -4.7653   -3.6323    0.1863 C.3       1 <0>         0.1435
     17 N1         -4.3837    2.4000   -2.1409 N.2       1 <0>        -0.5800
     18 N2         -3.7057    2.0002   -4.3569 N.2       1 <0>        -0.6610
     19 N3         -2.1320    0.4225   -4.9211 N.2       1 <0>        -0.8500
     20 N4         -5.3096    3.6106   -3.7884 N.pl3     1 <0>        -0.8500
     21 O1         -4.1209   -5.4272   -1.9274 O.3       1 <0>        -0.8290
     22 H1         -1.4585   -2.4029   -3.8694 H         1 <0>         0.1500
     23 H2         -3.4716   -1.3427   -0.2240 H         1 <0>         0.1500
     24 H3         -3.4409    1.2022   -0.7207 H         1 <0>         0.1500
     25 H4         -1.5070   -5.4766   -3.8521 H         1 <0>         0.0000
     26 H5         -3.2248   -5.5630   -4.3136 H         1 <0>         0.0000
     27 H6         -2.1834   -4.3470   -5.0515 H         1 <0>         0.0000
     28 H7         -5.5403   -2.6020    1.9947 H         1 <0>         0.0000
     29 H8         -3.9001   -2.1308    1.5573 H         1 <0>         0.0000
     30 H9         -5.2665   -1.5373    0.6065 H         1 <0>         0.0000
     31 H10        -4.9040   -5.0694    1.8591 H         1 <0>         0.0000
     32 H11        -4.1608   -5.7570    0.4174 H         1 <0>         0.0000
     33 H12        -3.2497   -4.6227    1.4268 H         1 <0>         0.0000
     34 H13        -6.8612   -4.2035    0.6637 H         1 <0>         0.0000
     35 H14        -6.7051   -3.1693   -0.7561 H         1 <0>         0.0000
     36 H15        -6.2579   -4.8853   -0.8468 H         1 <0>         0.0000
     37 H16        -1.3867   -0.1121   -1.1002 H         1 <0>         0.0000
     38 H17        -0.8871   -0.3885   -2.7540 H         1 <0>         0.0000
     39 H18        -2.3824    0.8173   -5.8327 H         1 <0>         0.4000
     40 H19        -5.8226    4.0479   -3.0577 H         1 <0>         0.4000
     41 H20        -5.4105    3.8533   -4.7473 H         1 <0>         0.4000
@<TRIPOS>BOND
     1    1    3 ar
     2    1    4 ar
     3    2    3 ar
     4    2    5 ar
     5    3   15 1
     6    4    6 ar
     7    4   11 1
     8    5    6 ar
     9    5   16 1
    10    6   21 1
    11    7    8 2
    12    7   17 1
    13    8    9 1
    14    8   15 1
    15    9   18 1
    16    9   19 2
    17   10   17 1
    18   10   18 2
    19   10   20 1
    20   12   16 1
    21   13   16 1
    22   14   16 1
    23    1   22 1
    24    2   23 1
    25    7   24 1
    26   11   25 1
    27   11   26 1
    28   11   27 1
    29   12   28 1
    30   12   29 1
    31   12   30 1
    32   13   31 1
    33   13   32 1
    34   13   33 1
    35   14   34 1
    36   14   35 1
    37   14   36 1
    38   15   37 1
    39   15   38 1
    40   19   39 1
    41   20   40 1
    42   20   41 1
