@<TRIPOS>MOLECULE
*****
   30    31     0     0     0
SMALL
USER_CHARGES

@<TRIPOS>ATOM
      1 C1         -0.8110   -4.8783   -0.4349 C.ar      1 <0>        -0.1500
      2 C2         -2.0242   -4.8957   -1.1230 C.ar      1 <0>        -0.1500
      3 C3          0.0513   -3.7901   -0.5690 C.ar      1 <0>        -0.1500
      4 C4         -1.5127   -2.7368   -2.0794 C.ar      1 <0>        -0.1500
      5 C5         -2.3750   -3.8250   -1.9453 C.ar      1 <0>        -0.1435
      6 C6         -0.2995   -2.7194   -1.3913 C.ar      1 <0>         0.1790
      7 C7          1.1053    1.4948    0.1991 C.2       1 <0>        -0.1500
      8 C8          1.2554    0.5417   -0.7268 C.2       1 <0>        -0.1356
      9 C9          0.1402    1.4060    1.2632 C.2       1 <0>        -0.1500
     10 C10        -0.7011    0.3685    1.3582 C.2       1 <0>        -0.2882
     11 C11         0.3918   -0.6647   -0.6739 C.2       1 <0>         0.3746
     12 C12        -2.0724   -0.7934   -0.2149 C.2       1 <0>         0.6590
     13 C13        -0.7014   -0.7707    0.3869 C.3       1 <0>         0.2602
     14 C14        -3.6722   -3.8432   -2.6811 C.3       1 <0>         1.1635
     15 N1          0.5678   -1.6254   -1.5264 N.2       1 <0>        -0.6290
     16 O1         -2.3929   -0.2321   -1.2521 O.2       1 <0>        -0.5700
     17 O2         -2.9195   -1.5233    0.5511 O.3       1 <0>        -0.6500
     18 F1         -4.4136   -4.9682   -2.4558 F         1 <0>        -0.3400
     19 F2         -4.4973   -2.8030   -2.3604 F         1 <0>        -0.3400
     20 F3         -3.5091   -3.7774   -4.0346 F         1 <0>        -0.3400
     21 H1         -0.5382   -5.7119    0.2057 H         1 <0>         0.1500
     22 H2         -2.6904   -5.7475   -1.0120 H         1 <0>         0.1500
     23 H3          0.9945   -3.7856   -0.0289 H         1 <0>         0.1500
     24 H4         -1.7867   -1.9015   -2.7201 H         1 <0>         0.1500
     25 H5          1.7330    2.3798    0.1731 H         1 <0>         0.1500
     26 H6          1.9957    0.6220   -1.5138 H         1 <0>         0.1500
     27 H7          0.1133    2.2089    1.9918 H         1 <0>         0.1500
     28 H8         -1.4061    0.3394    2.1854 H         1 <0>         0.1500
     29 H9         -0.5534   -1.7083    0.9350 H         1 <0>         0.0000
     30 H10        -3.8248   -1.5487    0.1741 H         1 <0>         0.5000
@<TRIPOS>BOND
     1    1    2 ar
     2    1    3 ar
     3    2    5 ar
     4    3    6 ar
     5    4    5 ar
     6    4    6 ar
     7    5   14 1
     8    6   15 1
     9    7    8 2
    10    7    9 1
    11    8   11 1
    12    9   10 2
    13   10   13 1
    14   11   13 1
    15   11   15 2
    16   12   13 1
    17   12   16 2
    18   12   17 1
    19   14   18 1
    20   14   19 1
    21   14   20 1
    22    1   21 1
    23    2   22 1
    24    3   23 1
    25    4   24 1
    26    7   25 1
    27    8   26 1
    28    9   27 1
    29   10   28 1
    30   13   29 1
    31   17   30 1
