@<TRIPOS>MOLECULE
*****
   43    45     0     0     0
SMALL
USER_CHARGES

@<TRIPOS>ATOM
      1 C1         -4.4577   -5.1364   -4.2661 C.ar      1 <0>        -0.1500
      2 C2         -5.5630   -4.3494   -3.9626 C.ar      1 <0>        -0.1500
      3 C3         -1.1764   -5.8447   -2.8773 C.ar      1 <0>         0.2110
      4 C4         -3.3484   -5.1109   -3.4243 C.ar      1 <0>         0.3610
      5 C5         -3.3619   -4.2883   -2.2779 C.ar      1 <0>         0.3610
      6 C6         -2.2526   -4.2628   -1.4362 C.ar      1 <0>         0.0825
      7 C7         -1.1474   -5.0501   -1.7395 C.ar      1 <0>         0.1900
      8 C8         -5.5340   -3.5548   -2.8250 C.ar      1 <0>         0.1900
      9 C9          0.2657   -0.7019    0.2998 C.3       1 <0>         0.0000
     10 C10        -0.6853   -2.4204    1.8898 C.3       1 <0>         0.0000
     11 C11         1.4954   -0.5560    1.1936 C.3       1 <0>         0.0000
     12 C12         0.5453   -2.2748    2.7824 C.3       1 <0>         0.0000
     13 C13        -0.3641   -2.0955    0.4249 C.3       1 <0>         0.0000
     14 C14         1.1751   -0.8862    2.6526 C.3       1 <0>         0.2700
     15 C15        -4.4945   -2.6720   -0.8296 C.3       1 <0>         0.4880
     16 C16        -1.6202   -2.1988   -0.4384 C.3       1 <0>         0.2800
     17 N1         -2.2551   -5.8536   -3.6736 N.ar      1 <0>        -0.1790
     18 N2         -4.4553   -3.5457   -2.0287 N.ar      1 <0>        -0.2100
     19 N3          2.3622   -0.7855    3.4663 N.3       1 <0>        -0.9900
     20 O1         -6.5172   -2.8085   -2.4918 O.3       1 <0>        -0.8290
     21 O2         -2.1556   -3.5013   -0.2975 O.3       1 <0>        -0.3625
     22 F1         -0.0646   -5.0496   -0.9508 F         1 <0>        -0.1900
     23 H1         -4.4671   -5.7624   -5.1537 H         1 <0>         0.1500
     24 H2         -6.4266   -4.3720   -4.6234 H         1 <0>         0.1500
     25 H3         -0.3596   -6.4846   -3.1818 H         1 <0>         0.1500
     26 H4         -0.4697    0.0667    0.5707 H         1 <0>         0.0000
     27 H5          0.5518   -0.5133   -0.7419 H         1 <0>         0.0000
     28 H6         -1.0703   -3.4440    1.9699 H         1 <0>         0.0000
     29 H7         -1.4770   -1.7539    2.2556 H         1 <0>         0.0000
     30 H8          2.2867   -1.2198    0.8204 H         1 <0>         0.0000
     31 H9          1.8793    0.4687    1.1138 H         1 <0>         0.0000
     32 H10         0.2586   -2.4641    3.8242 H         1 <0>         0.0000
     33 H11         1.2756   -3.0484    2.5104 H         1 <0>         0.0000
     34 H12         0.3591   -2.8357    0.0575 H         1 <0>         0.0000
     35 H13         0.4464   -0.1427    3.0206 H         1 <0>         0.0000
     36 H14        -4.1024   -1.6868   -1.0966 H         1 <0>         0.0000
     37 H15        -5.5207   -2.5691   -0.4656 H         1 <0>         0.0000
     38 H16        -3.8835   -3.1093   -0.0348 H         1 <0>         0.0000
     39 H17        -1.3665   -2.0231   -1.4831 H         1 <0>         0.0000
     40 H18        -2.3570   -1.4672   -0.1090 H         1 <0>         0.0000
     41 H19        -2.2388   -6.4509   -4.5005 H         1 <0>         0.4570
     42 H20         2.5116   -1.6631    3.9035 H         1 <0>         0.3600
     43 H21         3.1227   -0.5529    2.8737 H         1 <0>         0.3600
@<TRIPOS>BOND
     1    1    2 ar
     2    1    4 ar
     3    2    8 ar
     4    3    7 ar
     5    3   17 ar
     6    4    5 ar
     7    4   17 ar
     8    5    6 ar
     9    5   18 ar
    10    6    7 ar
    11    6   21 1
    12    7   22 1
    13    8   18 ar
    14    8   20 1
    15    9   11 1
    16    9   13 1
    17   10   12 1
    18   10   13 1
    19   11   14 1
    20   12   14 1
    21   13   16 1
    22   14   19 1
    23   15   18 1
    24   16   21 1
    25    1   23 1
    26    2   24 1
    27    3   25 1
    28    9   26 1
    29    9   27 1
    30   10   28 1
    31   10   29 1
    32   11   30 1
    33   11   31 1
    34   12   32 1
    35   12   33 1
    36   13   34 1
    37   14   35 1
    38   15   36 1
    39   15   37 1
    40   15   38 1
    41   16   39 1
    42   16   40 1
    43   17   41 1
    44   19   42 1
    45   19   43 1
