@<TRIPOS>MOLECULE
*****
   35    36     0     0     0
SMALL
USER_CHARGES

@<TRIPOS>ATOM
      1 C1         -1.0336    1.2022    4.9570 C.ar      1 <0>        -0.1500
      2 C2          0.2302    1.6385    4.5231 C.ar      1 <0>        -0.1500
      3 C3         -1.7118    0.1877    4.2766 C.ar      1 <0>        -0.1500
      4 C4          0.8372    1.0677    3.4016 C.ar      1 <0>        -0.1500
      5 C5         -1.1129   -0.3525    3.1552 C.ar      1 <0>         0.1000
      6 C6          0.1470    0.0825    2.7227 C.ar      1 <0>         0.1000
      7 C7         -0.1038   -2.9450    1.2333 C.2       1 <0>         0.3290
      8 C8          0.1996   -4.9322    0.1513 C.2       1 <0>         0.9310
      9 C9         -0.5646   -1.5305    1.2973 C.3       1 <0>         0.7992
     10 C10        -0.3783   -7.7051   -0.2259 C.3       1 <0>         0.0000
     11 C11         0.0136   -7.2649   -2.6676 C.3       1 <0>         0.0000
     12 C12         1.8809   -6.9319   -1.0212 C.3       1 <0>         0.0000
     13 C13         0.3715   -6.8463   -1.2432 C.3       1 <0>         0.2800
     14 N1         -0.2451   -3.6307    0.1487 N.2       1 <0>        -0.6610
     15 N2         -1.5585   -1.4117    2.3624 N.pl3     1 <0>        -0.8691
     16 N3          0.5731   -0.6759    1.6308 N.pl3     1 <0>        -0.8691
     17 O1          0.7265   -5.5327    1.0826 O.2       1 <0>        -0.5700
     18 O2         -0.0370   -5.4835   -1.0784 O.3       1 <0>        -0.4300
     19 H1         -1.4813    1.6513    5.8393 H         1 <0>         0.1500
     20 H2          0.7457    2.4197    5.0755 H         1 <0>         0.1500
     21 H3         -2.6765   -0.1624    4.6272 H         1 <0>         0.1500
     22 H4          1.8222    1.3914    3.0833 H         1 <0>         0.1500
     23 H5          0.3536   -3.3558    2.1504 H         1 <0>         0.0600
     24 H6         -0.9974   -1.2399    0.3339 H         1 <0>         0.0000
     25 H7         -0.1241   -7.4077    0.7978 H         1 <0>         0.0000
     26 H8         -1.4630   -7.6251   -0.3520 H         1 <0>         0.0000
     27 H9         -0.0957   -8.7598   -0.3206 H         1 <0>         0.0000
     28 H10         0.5494   -6.6513   -3.4008 H         1 <0>         0.0000
     29 H11        -1.0547   -7.1152   -2.8616 H         1 <0>         0.0000
     30 H12         0.2556   -8.3164   -2.8525 H         1 <0>         0.0000
     31 H13         2.4190   -6.3160   -1.7508 H         1 <0>         0.0000
     32 H14         2.1602   -6.6000   -0.0160 H         1 <0>         0.0000
     33 H15         2.2376   -7.9588   -1.1606 H         1 <0>         0.0000
     34 H16        -2.5257   -1.6889    2.2863 H         1 <0>         0.4000
     35 H17         1.2828   -0.3738    0.9801 H         1 <0>         0.4000
@<TRIPOS>BOND
     1    1    2 ar
     2    1    3 ar
     3    2    4 ar
     4    3    5 ar
     5    4    6 ar
     6    5    6 ar
     7    5   15 1
     8    6   16 1
     9    7    9 1
    10    7   14 2
    11    8   14 1
    12    8   17 2
    13    8   18 1
    14    9   15 1
    15    9   16 1
    16   10   13 1
    17   11   13 1
    18   12   13 1
    19   13   18 1
    20    1   19 1
    21    2   20 1
    22    3   21 1
    23    4   22 1
    24    7   23 1
    25    9   24 1
    26   10   25 1
    27   10   26 1
    28   10   27 1
    29   11   28 1
    30   11   29 1
    31   11   30 1
    32   12   31 1
    33   12   32 1
    34   12   33 1
    35   15   34 1
    36   16   35 1
