@<TRIPOS>MOLECULE
*****
   39    40     0     0     0
SMALL
USER_CHARGES

@<TRIPOS>ATOM
      1 C1          3.1178   -0.3144    1.4978 C.ar      1 <0>        -0.1500
      2 C2          2.9702   -0.0660    3.8964 C.ar      1 <0>        -0.1500
      3 C3          2.3529   -0.1109    2.6464 C.ar      1 <0>        -0.1435
      4 C4          4.4999   -0.4732    1.5993 C.ar      1 <0>         0.0825
      5 C5          4.3523   -0.2248    3.9979 C.ar      1 <0>         0.0825
      6 C6          5.1171   -0.4284    2.8494 C.ar      1 <0>         0.0825
      7 C7          0.1093   -1.1658    2.9303 C.2       1 <0>        -0.1238
      8 C8         -0.5699   -1.3489    4.0840 C.2       1 <0>        -0.1233
      9 C9          0.0327   -2.3725    2.0438 C.2       1 <0>         0.4856
     10 C10        -1.3551   -3.4877    3.7657 C.2       1 <0>         0.2800
     11 C11         4.5268   -0.7039   -0.7675 C.3       1 <0>         0.2800
     12 C12         4.0889    0.0333    6.3474 C.3       1 <0>         0.2800
     13 C13        -1.6522    0.5784    4.7853 C.3       1 <0>         0.2800
     14 C14         0.8607    0.0609    2.5370 C.3       1 <0>         0.2817
     15 N1         -1.2836   -2.4068    4.5546 N.2       1 <0>        -0.5800
     16 N2          0.6240   -2.3911    0.8873 N.2       1 <0>        -0.8500
     17 N3         -2.0282   -4.5114    4.1899 N.2       1 <0>        -0.8500
     18 N4         -0.7000   -3.4329    2.5482 N.pl3     1 <0>        -0.5000
     19 O1          6.4680   -0.5835    2.9485 O.3       1 <0>        -0.5325
     20 O2          5.2354   -0.6714    0.4698 O.3       1 <0>        -0.3625
     21 O3          4.9427   -0.1786    5.2249 O.3       1 <0>        -0.3625
     22 O4         -0.5766   -0.2985    4.9936 O.3       1 <0>        -0.3567
     23 H1          2.6389   -0.3497    0.5222 H         1 <0>         0.1500
     24 H2          2.3762    0.0926    4.7933 H         1 <0>         0.1500
     25 H3          5.2306   -0.8685   -1.5871 H         1 <0>         0.0000
     26 H4          3.9987    0.2421   -0.9110 H         1 <0>         0.0000
     27 H5          3.8035   -1.5224   -0.7415 H         1 <0>         0.0000
     28 H6          4.6859    0.0486    7.2625 H         1 <0>         0.0000
     29 H7          3.3461   -0.7669    6.3975 H         1 <0>         0.0000
     30 H8          3.5801    0.9931    6.2308 H         1 <0>         0.0000
     31 H9         -1.6142    1.3843    5.5222 H         1 <0>         0.0000
     32 H10        -2.5933    0.0303    4.8771 H         1 <0>         0.0000
     33 H11        -1.5761    1.0021    3.7811 H         1 <0>         0.0000
     34 H12         0.5430    0.9003    3.1674 H         1 <0>         0.0000
     35 H13         0.5888    0.3375    1.5114 H         1 <0>         0.0000
     36 H14         0.4517   -3.2958    0.4443 H         1 <0>         0.4000
     37 H15        -1.9899   -5.2493    3.4828 H         1 <0>         0.4000
     38 H16        -0.7650   -4.2624    1.9635 H         1 <0>         0.4000
     39 H17         6.8546   -0.7152    2.0690 H         1 <0>         0.4500
@<TRIPOS>BOND
     1    1    3 ar
     2    1    4 ar
     3    2    3 ar
     4    2    5 ar
     5    3   14 1
     6    4    6 ar
     7    4   20 1
     8    5    6 ar
     9    5   21 1
    10    6   19 1
    11    7    8 2
    12    7    9 1
    13    7   14 1
    14    8   15 1
    15    8   22 1
    16    9   16 2
    17    9   18 1
    18   10   15 1
    19   10   17 2
    20   10   18 1
    21   11   20 1
    22   12   21 1
    23   13   22 1
    24    1   23 1
    25    2   24 1
    26   11   25 1
    27   11   26 1
    28   11   27 1
    29   12   28 1
    30   12   29 1
    31   12   30 1
    32   13   31 1
    33   13   32 1
    34   13   33 1
    35   14   34 1
    36   14   35 1
    37   16   36 1
    38   17   37 1
    39   18   38 1
    40   19   39 1
