@<TRIPOS>MOLECULE
*****
   47    50     0     0     0
SMALL
USER_CHARGES

@<TRIPOS>ATOM
      1 C1         -5.5188    5.1363    4.8960 C.ar      1 <0>        -0.1500
      2 C2         -5.8047    5.2450    6.2737 C.ar      1 <0>        -0.1500
      3 C3         -4.9017    3.9989    4.3558 C.ar      1 <0>        -0.1090
      4 C4         -5.4875    4.2217    7.1784 C.ar      1 <0>        -0.1090
      5 C5         -8.9087    3.0292    8.9375 C.ar      1 <0>         0.1600
      6 C6        -10.1988    2.9802    6.9908 C.ar      1 <0>         0.1600
      7 C7         -9.5522    2.2699    7.9816 C.ar      1 <0>        -0.1435
      8 C8         -4.5935    2.9935    5.2646 C.ar      1 <0>         0.3090
      9 C9         -4.8765    3.1011    6.6282 C.ar      1 <0>         0.3090
     10 C10        -3.9077    1.1321    6.2692 C.cat     1 <0>         0.6560
     11 C11        -9.5576    4.9543    7.9176 C.ar      1 <0>         0.7025
     12 C12        -7.2165   -0.0871    8.3512 C.2       1 <0>        -0.0500
     13 C13        -8.2558    0.1819    7.5494 C.2       1 <0>        -0.1238
     14 C14        -8.0917   -0.1287    6.0791 C.2       1 <0>         0.7666
     15 C15        -5.9480   -0.8850    6.5359 C.2       1 <0>         0.6410
     16 C16        -3.5316    1.2220    3.8281 C.3       1 <0>         0.5140
     17 C17        -8.8630    6.9913    8.9296 C.3       1 <0>         0.2800
     18 C18        -9.5482    0.7648    8.0167 C.3       1 <0>         0.2817
     19 C19        -3.3300   -0.2131    6.5150 C.3       1 <0>         0.3740
     20 N1         -8.8910    4.3783    8.9361 N.ar      1 <0>        -0.6200
     21 N2        -10.2221    4.3278    6.9279 N.ar      1 <0>        -0.6200
     22 N3         -6.8821   -0.6695    5.6575 N.2       1 <0>        -0.6610
     23 N4         -3.9964    1.7614    5.0929 N.pl3     1 <0>        -0.7640
     24 N5         -4.4345    1.9283    7.2053 N.pl3     1 <0>        -0.7000
     25 N6         -6.0568   -0.6178    7.8731 N.pl3     1 <0>        -0.5500
     26 O1         -9.0198    0.1024    5.3077 O.2       1 <0>        -0.5700
     27 O2         -9.5620    6.3294    7.8853 O.3       1 <0>        -0.3625
     28 S1         -4.4406   -1.5611    5.9981 S.3       1 <0>        -0.3710
     29 H1         -5.7851    5.9587    4.2356 H         1 <0>         0.1500
     30 H2         -6.2848    6.1486    6.6430 H         1 <0>         0.1500
     31 H3         -4.6790    3.9075    3.3005 H         1 <0>         0.1500
     32 H4         -5.7013    4.2925    8.2370 H         1 <0>         0.1500
     33 H5         -8.3703    2.5657    9.7581 H         1 <0>         0.1500
     34 H6        -10.7348    2.4758    6.1929 H         1 <0>         0.1500
     35 H7         -7.2201    0.0943    9.4184 H         1 <0>         0.1500
     36 H8         -2.4903    1.5267    3.6938 H         1 <0>         0.0000
     37 H9         -3.6116    0.1315    3.8459 H         1 <0>         0.0000
     38 H10        -4.1531    1.6135    3.0180 H         1 <0>         0.0000
     39 H11        -8.9403    8.0726    8.7926 H         1 <0>         0.0000
     40 H12        -7.8137    6.6858    8.9176 H         1 <0>         0.0000
     41 H13        -9.3100    6.7148    9.8875 H         1 <0>         0.0000
     42 H14        -9.7523    0.4223    9.0379 H         1 <0>         0.0000
     43 H15       -10.3640    0.3717    7.3995 H         1 <0>         0.0000
     44 H16        -2.3717   -0.3385    5.9845 H         1 <0>         0.0000
     45 H17        -3.0985   -0.3554    7.5834 H         1 <0>         0.0000
     46 H18        -4.5000    1.7032    8.1944 H         1 <0>         0.4500
     47 H19        -5.3037   -0.8009    8.5257 H         1 <0>         0.4000
@<TRIPOS>BOND
     1    1    2 ar
     2    1    3 ar
     3    2    4 ar
     4    3    8 ar
     5    4    9 ar
     6    5    7 ar
     7    5   20 ar
     8    6    7 ar
     9    6   21 ar
    10    7   18 1
    11    8    9 ar
    12    8   23 1
    13    9   24 1
    14   10   19 1
    15   10   23 1
    16   10   24 2
    17   11   20 ar
    18   11   21 ar
    19   11   27 1
    20   12   13 2
    21   12   25 1
    22   13   14 1
    23   13   18 1
    24   14   22 1
    25   14   26 2
    26   15   22 2
    27   15   25 1
    28   15   28 1
    29   16   23 1
    30   17   27 1
    31   19   28 1
    32    1   29 1
    33    2   30 1
    34    3   31 1
    35    4   32 1
    36    5   33 1
    37    6   34 1
    38   12   35 1
    39   16   36 1
    40   16   37 1
    41   16   38 1
    42   17   39 1
    43   17   40 1
    44   17   41 1
    45   18   42 1
    46   18   43 1
    47   19   44 1
    48   19   45 1
    49   24   46 1
    50   25   47 1
