@<TRIPOS>MOLECULE
*****
   47    50     0     0     0
SMALL
USER_CHARGES

@<TRIPOS>ATOM
      1 C1         -7.7205   -1.5089    0.8542 C.ar      1 <0>        -0.1500
      2 C2         -7.8246   -2.7375    0.1734 C.ar      1 <0>        -0.1500
      3 C3         -6.4749   -0.9987    1.2425 C.ar      1 <0>        -0.1500
      4 C4         -6.6861   -3.4818   -0.1337 C.ar      1 <0>        -0.1500
      5 C5          4.6223   -0.5497    0.9675 C.ar      1 <0>         0.1600
      6 C6          4.9749   -1.7249    2.9552 C.ar      1 <0>         0.1600
      7 C7          4.6920   -1.7715    1.6054 C.ar      1 <0>        -0.1435
      8 C8         -5.3466   -1.7341    0.9392 C.ar      1 <0>         0.1000
      9 C9         -5.4754   -2.9529    0.2613 C.ar      1 <0>         0.3640
     10 C10         5.0811    0.5452    2.9060 C.ar      1 <0>         0.7025
     11 C11         2.3840   -2.9482   -0.5009 C.2       1 <0>        -0.0500
     12 C12         3.0300   -3.3414    0.6054 C.2       1 <0>        -0.1238
     13 C13         2.2311   -4.1058    1.6363 C.2       1 <0>         0.7666
     14 C14        -3.2697   -2.5582    0.6723 C.2       1 <0>         0.4560
     15 C15         0.3762   -3.9146    0.2583 C.2       1 <0>         0.6410
     16 C16        -1.9547   -2.8016    0.6574 C.2       1 <0>        -0.0490
     17 C17        -3.5429   -0.3146    1.8805 C.3       1 <0>         0.3691
     18 C18         5.1837    2.9188    2.7990 C.3       1 <0>         0.2800
     19 C19         4.4727   -3.0703    0.8764 C.3       1 <0>         0.2817
     20 N1          4.8121    0.6325    1.5894 N.ar      1 <0>        -0.6200
     21 N2          5.1761   -0.5799    3.6400 N.ar      1 <0>        -0.6200
     22 N3          0.8880   -4.3495    1.3715 N.2       1 <0>        -0.6610
     23 N4          1.0641   -3.2199   -0.6987 N.pl3     1 <0>        -0.5500
     24 N5         -3.9992   -1.4956    1.1879 N.pl3     1 <0>        -0.5691
     25 N6         -4.1466   -3.5387    0.0581 N.4       1 <0>        -0.6200
     26 O1          2.7838   -4.4855    2.6659 O.2       1 <0>        -0.5700
     27 O2          5.2820    1.7316    3.5724 O.3       1 <0>        -0.3625
     28 S1         -1.2869   -4.2218   -0.0593 S.3       1 <0>        -0.2420
     29 H1         -8.6235   -0.9479    1.0818 H         1 <0>         0.1500
     30 H2         -8.8050   -3.1075   -0.1147 H         1 <0>         0.1500
     31 H3         -6.4153   -0.0507    1.7659 H         1 <0>         0.1500
     32 H4         -6.7569   -4.4279   -0.6564 H         1 <0>         0.1500
     33 H5          4.4045   -0.4785   -0.0934 H         1 <0>         0.1500
     34 H6          5.0518   -2.6315    3.5474 H         1 <0>         0.1500
     35 H7          2.8533   -2.3951   -1.3044 H         1 <0>         0.1500
     36 H8         -1.2724   -2.0897    1.1073 H         1 <0>         0.1500
     37 H9         -3.5053   -0.5144    2.9615 H         1 <0>         0.0000
     38 H10        -2.5385   -0.0447    1.5224 H         1 <0>         0.0000
     39 H11        -4.2372    0.5160    1.6852 H         1 <0>         0.0000
     40 H12         5.3623    3.7868    3.4383 H         1 <0>         0.0000
     41 H13         4.1890    2.9814    2.3507 H         1 <0>         0.0000
     42 H14         5.9367    2.8908    2.0077 H         1 <0>         0.0000
     43 H15         5.0233   -3.0553   -0.0715 H         1 <0>         0.0000
     44 H16         4.8924   -3.9018    1.4541 H         1 <0>         0.0000
     45 H17         0.6272   -2.8981   -1.5543 H         1 <0>         0.4000
     46 H18        -4.1005   -4.4558    0.5209 H         1 <0>         0.4500
     47 H19        -3.9705   -3.6515   -0.9487 H         1 <0>         0.4500
@<TRIPOS>BOND
     1    1    2 ar
     2    1    3 ar
     3    2    4 ar
     4    3    8 ar
     5    4    9 ar
     6    5    7 ar
     7    5   20 ar
     8    6    7 ar
     9    6   21 ar
    10    7   19 1
    11    8    9 ar
    12    8   24 1
    13    9   25 1
    14   10   20 ar
    15   10   21 ar
    16   10   27 1
    17   11   12 2
    18   11   23 1
    19   12   13 1
    20   12   19 1
    21   13   22 1
    22   13   26 2
    23   14   16 2
    24   14   24 1
    25   14   25 1
    26   15   22 2
    27   15   23 1
    28   15   28 1
    29   16   28 1
    30   17   24 1
    31   18   27 1
    32    1   29 1
    33    2   30 1
    34    3   31 1
    35    4   32 1
    36    5   33 1
    37    6   34 1
    38   11   35 1
    39   16   36 1
    40   17   37 1
    41   17   38 1
    42   17   39 1
    43   18   40 1
    44   18   41 1
    45   18   42 1
    46   19   43 1
    47   19   44 1
    48   23   45 1
    49   25   46 1
    50   25   47 1
