@<TRIPOS>MOLECULE
*****
   30    31     0     0     0
SMALL
USER_CHARGES

@<TRIPOS>ATOM
      1 C1         -3.3547    1.8962    5.4586 C.2       1 <0>        -0.1500
      2 C2         -1.9448    1.8056    5.3744 C.2       1 <0>        -0.1500
      3 C3          1.8851   -1.0363   -0.1124 C.ar      1 <0>        -0.1500
      4 C4          1.7997   -1.0786    2.6757 C.ar      1 <0>        -0.1500
      5 C5         -3.8500    0.8640    4.6963 C.2       1 <0>        -0.0100
      6 C6          0.8066   -0.4630    0.5610 C.ar      1 <0>        -0.1790
      7 C7          0.7638   -0.4841    1.9551 C.ar      1 <0>         0.1000
      8 C8          2.9210   -1.6309    0.6081 C.ar      1 <0>        -0.0090
      9 C9          2.8783   -1.6520    2.0022 C.ar      1 <0>         0.1770
     10 C10        -1.6790    0.7242    4.5669 C.2       1 <0>        -0.0400
     11 C11        -0.2756    0.1590   -0.2248 C.2       1 <0>         0.9790
     12 C12        -0.4059    0.0931    4.0820 C.3       1 <0>         0.5491
     13 N1          3.9327   -2.1112   -1.8485 N.2       1 <0>        -0.6901
     14 N2         -0.3195    0.0911    2.6557 N.pl3     1 <0>        -0.8691
     15 O1         -1.2729   -0.5692   -0.5852 O.co2     1 <0>        -0.9000
     16 O2         -0.1831    1.4073   -0.5216 O.co2     1 <0>        -0.9000
     17 O3          4.2566   -3.7529    0.1040 O.2       1 <0>        -0.6500
     18 O4          5.4402   -1.6059    0.1730 O.2       1 <0>        -0.6500
     19 O5         -2.8351    0.1447    4.1494 O.3       1 <0>        -0.2800
     20 S1          4.2494   -2.3354   -0.2916 S.o2      1 <0>         0.8491
     21 Cl1         4.1350   -2.3754    2.9404 Cl        1 <0>        -0.1770
     22 H1         -3.9371    2.6232    6.0059 H         1 <0>         0.1500
     23 H2         -1.2159    2.4501    5.8448 H         1 <0>         0.1500
     24 H3          1.9165   -1.0190   -1.1996 H         1 <0>         0.1500
     25 H4          1.7614   -1.0925    3.7631 H         1 <0>         0.1500
     26 H5         -4.8466    0.5244    4.4552 H         1 <0>         0.1500
     27 H6          0.4648    0.6316    4.4719 H         1 <0>         0.0000
     28 H7         -0.3266   -0.9442    4.4237 H         1 <0>         0.0000
     29 H8          4.6911   -2.5124   -2.4113 H         1 <0>         0.1500
     30 H9         -1.0447    0.5073    2.1043 H         1 <0>         0.4000
@<TRIPOS>BOND
     1    1    2 1
     2    1    5 2
     3    2   10 2
     4    3    6 ar
     5    3    8 ar
     6    4    7 ar
     7    4    9 ar
     8    5   19 1
     9    6    7 ar
    10    6   11 1
    11    7   14 1
    12    8    9 ar
    13    8   20 1
    14    9   21 1
    15   10   12 1
    16   10   19 1
    17   11   15 1
    18   11   16 2
    19   12   14 1
    20   13   20 1
    21   17   20 2
    22   18   20 2
    23    1   22 1
    24    2   23 1
    25    3   24 1
    26    4   25 1
    27    5   26 1
    28   12   27 1
    29   12   28 1
    30   13   29 1
    31   14   30 1
