@<TRIPOS>MOLECULE
*****
   47    50     0     0     0
SMALL
USER_CHARGES

@<TRIPOS>ATOM
      1 C1         -1.6898   -5.7501    9.8494 C.ar      1 <0>        -0.1500
      2 C2         -1.3874   -6.7480    8.9201 C.ar      1 <0>        -0.1500
      3 C3         -1.1441   -4.4656    9.7321 C.ar      1 <0>        -0.1500
      4 C4         -0.5311   -6.5005    7.8420 C.ar      1 <0>        -0.1500
      5 C5          1.5636   -1.3793   13.3660 C.ar      1 <0>         0.1600
      6 C6          2.4905   -3.4087   14.0578 C.ar      1 <0>         0.1600
      7 C7          3.4742   -1.1106   10.3047 C.ar      1 <0>         0.1600
      8 C8          2.6510   -2.2290   13.3602 C.ar      1 <0>        -0.1435
      9 C9          3.8848   -2.1174   11.1647 C.ar      1 <0>        -0.1435
     10 C10        -0.2816   -4.1994    8.6552 C.ar      1 <0>         0.2272
     11 C11         0.0008   -5.2142    7.7452 C.ar      1 <0>        -0.1516
     12 C12         4.2370   -3.3290   10.5915 C.ar      1 <0>         0.4435
     13 C13         1.0474   -3.3360    7.2242 C.2       1 <0>         0.0065
     14 C14         0.3716   -2.8320   14.6450 C.ar      1 <0>         0.7025
     15 C15         3.7611   -2.4544    8.4989 C.ar      1 <0>         0.7725
     16 C16         1.4375   -5.2829    5.6893 C.3       1 <0>         0.2556
     17 C17        -1.8381   -2.1791   15.2337 C.3       1 <0>         0.2800
     18 C18         3.9385   -1.8888   12.6332 C.3       1 <0>         0.2870
     19 C19         1.9211   -2.4157    6.4677 C.3       1 <0>         0.4100
     20 N1          0.4041   -1.6501   14.0004 N.ar      1 <0>        -0.6200
     21 N2          1.3604   -3.7437   14.7143 N.ar      1 <0>        -0.6200
     22 N3          3.3991   -1.2419    8.9626 N.ar      1 <0>        -0.6200
     23 N4          0.3772   -3.0401    8.3152 N.2       1 <0>        -0.5653
     24 N5          0.8530   -4.6339    6.8411 N.pl3     1 <0>         0.0476
     25 N6          4.1686   -3.4766    9.2615 N.ar      1 <0>        -0.1790
     26 O1          4.6526   -4.3712   11.3739 O.3       1 <0>        -0.5325
     27 O2         -0.7953   -3.1407   15.3047 O.3       1 <0>        -0.3625
     28 S1          3.6961   -2.7227    6.7558 S.3       1 <0>        -0.3315
     29 H1         -2.3598   -5.9724   10.6759 H         1 <0>         0.1500
     30 H2         -1.8252   -7.7365    9.0363 H         1 <0>         0.1500
     31 H3         -1.3860   -3.6972   10.4591 H         1 <0>         0.1500
     32 H4         -0.2976   -7.2754    7.1206 H         1 <0>         0.1500
     33 H5          1.5886   -0.4270   12.8458 H         1 <0>         0.1500
     34 H6          3.2873   -4.1439   14.1143 H         1 <0>         0.1500
     35 H7          3.1833   -0.1348   10.6818 H         1 <0>         0.1500
     36 H8          0.7609   -5.1408    4.8425 H         1 <0>         0.0000
     37 H9          2.4139   -4.8383    5.4772 H         1 <0>         0.0000
     38 H10         1.5675   -6.3477    5.9017 H         1 <0>         0.0000
     39 H11        -2.7050   -2.5388   15.7934 H         1 <0>         0.0000
     40 H12        -2.1098   -2.0114   14.1885 H         1 <0>         0.0000
     41 H13        -1.4877   -1.2417   15.6720 H         1 <0>         0.0000
     42 H14         4.2035   -0.8387   12.8561 H         1 <0>         0.0000
     43 H15         4.7649   -2.4654   13.0886 H         1 <0>         0.0000
     44 H16         1.7400   -2.4864    5.3798 H         1 <0>         0.0000
     45 H17         1.7177   -1.3613    6.7284 H         1 <0>         0.0000
     46 H18         4.4255   -4.3636    8.8324 H         1 <0>         0.4570
     47 H19         4.8585   -5.1378   10.8196 H         1 <0>         0.4500
@<TRIPOS>BOND
     1    1    2 ar
     2    1    3 ar
     3    2    4 ar
     4    3   10 ar
     5    4   11 ar
     6    5    8 ar
     7    5   20 ar
     8    6    8 ar
     9    6   21 ar
    10    7    9 ar
    11    7   22 ar
    12    8   18 1
    13    9   12 ar
    14    9   18 1
    15   10   11 ar
    16   10   23 1
    17   11   24 1
    18   12   25 ar
    19   12   26 1
    20   13   19 1
    21   13   23 2
    22   13   24 1
    23   14   20 ar
    24   14   21 ar
    25   14   27 1
    26   15   22 ar
    27   15   25 ar
    28   15   28 1
    29   16   24 1
    30   17   27 1
    31   19   28 1
    32    1   29 1
    33    2   30 1
    34    3   31 1
    35    4   32 1
    36    5   33 1
    37    6   34 1
    38    7   35 1
    39   16   36 1
    40   16   37 1
    41   16   38 1
    42   17   39 1
    43   17   40 1
    44   17   41 1
    45   18   42 1
    46   18   43 1
    47   19   44 1
    48   19   45 1
    49   25   46 1
    50   26   47 1
