@<TRIPOS>MOLECULE
*****
   47    49     0     0     0
SMALL
USER_CHARGES

@<TRIPOS>ATOM
      1 C1          5.5174   -2.2896   -2.0006 C.ar      1 <0>        -0.1500
      2 C2         -5.0338   -3.2263    5.7765 C.ar      1 <0>        -0.1500
      3 C3          4.4396   -1.7164   -1.3259 C.ar      1 <0>        -0.1500
      4 C4          1.8851   -1.0363   -0.1124 C.ar      1 <0>        -0.1500
      5 C5          2.8783   -1.6520    2.0022 C.ar      1 <0>        -0.1500
      6 C6          0.8066   -0.4630    0.5610 C.ar      1 <0>        -0.1500
      7 C7          1.7997   -1.0786    2.6757 C.ar      1 <0>        -0.1500
      8 C8         -4.1234   -2.5166    6.5595 C.ar      1 <0>        -0.1500
      9 C9          6.1952   -3.3722   -1.4401 C.ar      1 <0>        -0.1500
     10 C10        -5.1138   -2.9820    4.4055 C.ar      1 <0>        -0.1500
     11 C11         4.7175   -3.3082    0.4702 C.ar      1 <0>        -0.1500
     12 C12         2.9210   -1.6309    0.6081 C.ar      1 <0>         0.0000
     13 C13         4.0396   -2.2257   -0.0904 C.ar      1 <0>         0.0000
     14 C14         0.7638   -0.4841    1.9551 C.ar      1 <0>        -0.1435
     15 C15        -3.3730   -1.3181    4.6005 C.ar      1 <0>        -0.1435
     16 C16        -3.2930   -1.5625    5.9715 C.ar      1 <0>         0.1900
     17 C17         5.7953   -3.8815   -0.2046 C.ar      1 <0>        -0.0090
     18 C18        -4.2834   -2.0279    3.8175 C.ar      1 <0>         0.1770
     19 C19         7.9347   -4.4975    1.4678 C.3       1 <0>         0.1052
     20 C20        -0.3895    0.1286    2.6751 C.3       1 <0>         0.6465
     21 C21        -2.4640   -0.2845    4.0034 C.3       1 <0>         0.6465
     22 N1         -1.3381   -0.8743    3.2333 N.4       1 <0>        -0.9060
     23 O1          5.7304   -5.9159    1.4052 O.2       1 <0>        -0.6500
     24 O2          7.2918   -5.9897   -0.5703 O.2       1 <0>        -0.6500
     25 F1         -2.4223   -0.8860    6.7338 F         1 <0>        -0.1900
     26 S1          6.6429   -5.2382    0.4953 S.o2      1 <0>         1.2038
     27 Cl1        -4.4125   -1.7528    2.1183 Cl        1 <0>        -0.1770
     28 H1          5.8287   -1.8933   -2.9628 H         1 <0>         0.1500
     29 H2         -5.6804   -3.9685    6.2351 H         1 <0>         0.1500
     30 H3          3.9217   -0.8727   -1.7759 H         1 <0>         0.1500
     31 H4          1.9036   -1.0124   -1.1995 H         1 <0>         0.1500
     32 H5          3.6784   -2.1111    2.5780 H         1 <0>         0.1500
     33 H6          0.0034   -0.0030   -0.0085 H         1 <0>         0.1500
     34 H7          1.7748   -1.0991    3.7621 H         1 <0>         0.1500
     35 H8         -4.0611   -2.7068    7.6270 H         1 <0>         0.1500
     36 H9          7.0335   -3.8113   -1.9739 H         1 <0>         0.1500
     37 H10        -5.8286   -3.5435    3.8091 H         1 <0>         0.1500
     38 H11         4.4100   -3.7091    1.4339 H         1 <0>         0.1500
     39 H12         8.5110   -5.2950    1.9395 H         1 <0>         0.0000
     40 H13         8.5695   -3.9076    0.8050 H         1 <0>         0.0000
     41 H14         7.4740   -3.8600    2.2239 H         1 <0>         0.0000
     42 H15        -0.0572    0.7432    3.5229 H         1 <0>         0.0000
     43 H16        -0.9807    0.7771    2.0141 H         1 <0>         0.0000
     44 H17        -3.0078    0.3701    3.3139 H         1 <0>         0.0000
     45 H18        -2.0178    0.3459    4.7801 H         1 <0>         0.0000
     46 H19        -1.7156   -1.4430    2.4638 H         1 <0>         0.4500
     47 H20        -0.8196   -1.5261    3.8369 H         1 <0>         0.4500
@<TRIPOS>BOND
     1    1    3 ar
     2    1    9 ar
     3    2    8 ar
     4    2   10 ar
     5    3   13 ar
     6    4    6 ar
     7    4   12 ar
     8    5    7 ar
     9    5   12 ar
    10    6   14 ar
    11    7   14 ar
    12    8   16 ar
    13    9   17 ar
    14   10   18 ar
    15   11   13 ar
    16   11   17 ar
    17   12   13 1
    18   14   20 1
    19   15   16 ar
    20   15   18 ar
    21   15   21 1
    22   16   25 1
    23   17   26 1
    24   18   27 1
    25   19   26 1
    26   20   22 1
    27   21   22 1
    28   23   26 2
    29   24   26 2
    30    1   28 1
    31    2   29 1
    32    3   30 1
    33    4   31 1
    34    5   32 1
    35    6   33 1
    36    7   34 1
    37    8   35 1
    38    9   36 1
    39   10   37 1
    40   11   38 1
    41   19   39 1
    42   19   40 1
    43   19   41 1
    44   20   42 1
    45   20   43 1
    46   21   44 1
    47   21   45 1
    48   22   46 1
    49   22   47 1
