@<TRIPOS>MOLECULE
*****
   42    43     0     0     0
SMALL
USER_CHARGES

@<TRIPOS>ATOM
      1 C1          0.0549   -1.5799    3.4716 C.ar      1 <0>        -0.1500
      2 C2         -1.7042   -0.5400    4.7603 C.ar      1 <0>        -0.1500
      3 C3         -1.0774   -0.7679    3.5352 C.ar      1 <0>        -0.1435
      4 C4          0.5604   -2.1641    4.6330 C.ar      1 <0>        -0.1435
      5 C5         -1.1987   -1.1242    5.9218 C.ar      1 <0>        -0.1435
      6 C6         -0.0664   -1.9362    5.8581 C.ar      1 <0>        -0.1710
      7 C7         -4.1034   -0.5425    2.1007 C.2       1 <0>        -0.0500
      8 C8         -2.8352   -0.8330    1.7652 C.2       1 <0>        -0.1238
      9 C9         -2.7119   -1.9677    0.7828 C.2       1 <0>         0.4856
     10 C10        -5.1790   -2.2409    0.7164 C.2       1 <0>         0.5500
     11 C11         1.7797   -3.0261    4.4999 C.3       1 <0>         0.1435
     12 C12        -3.1393    0.0928    6.9700 C.3       1 <0>         0.0000
     13 C13        -0.9733   -0.1418    8.2306 C.3       1 <0>         0.0000
     14 C14        -2.4801   -2.0983    7.9428 C.3       1 <0>         0.0000
     15 C15        -1.6235   -0.1368    2.2807 C.3       1 <0>         0.2817
     16 C16        -1.9161   -0.8416    7.2074 C.3       1 <0>         0.1435
     17 N1         -1.5300   -2.3401    0.3827 N.2       1 <0>        -0.8500
     18 N2         -6.2416   -2.8456    0.2701 N.2       1 <0>        -0.8500
     19 N3         -5.2199   -1.1906    1.6206 N.pl3     1 <0>        -0.5500
     20 N4         -3.8828   -2.5757    0.3406 N.pl3     1 <0>        -0.5000
     21 O1          0.3992   -2.4741    6.9277 O.3       1 <0>        -0.8290
     22 H1          0.5421   -1.7558    2.5152 H         1 <0>         0.1500
     23 H2         -2.5869    0.0937    4.8074 H         1 <0>         0.1500
     24 H3         -4.3485    0.2503    2.7979 H         1 <0>         0.1500
     25 H4          2.6821   -2.4190    4.6201 H         1 <0>         0.0000
     26 H5          1.7825   -3.8183    5.2558 H         1 <0>         0.0000
     27 H6          1.8085   -3.5135    3.5198 H         1 <0>         0.0000
     28 H7         -3.6824    0.3155    7.8959 H         1 <0>         0.0000
     29 H8         -2.8360    1.0529    6.5382 H         1 <0>         0.0000
     30 H9         -3.8458   -0.3730    6.2726 H         1 <0>         0.0000
     31 H10        -1.4878    0.0694    9.1744 H         1 <0>         0.0000
     32 H11        -0.0943   -0.7500    8.4744 H         1 <0>         0.0000
     33 H12        -0.6166    0.8141    7.8293 H         1 <0>         0.0000
     34 H13        -2.9952   -1.8405    8.8761 H         1 <0>         0.0000
     35 H14        -3.2029   -2.6300    7.3129 H         1 <0>         0.0000
     36 H15        -1.6747   -2.7955    8.2018 H         1 <0>         0.0000
     37 H16        -1.8624    0.9160    2.4778 H         1 <0>         0.0000
     38 H17        -0.8519   -0.1259    1.5010 H         1 <0>         0.0000
     39 H18        -1.6375   -3.1141   -0.2743 H         1 <0>         0.4000
     40 H19        -5.9515   -3.5787   -0.3789 H         1 <0>         0.4000
     41 H20        -6.1141   -0.8582    1.9668 H         1 <0>         0.4000
     42 H21        -3.7810   -3.3399   -0.3224 H         1 <0>         0.4000
@<TRIPOS>BOND
     1    1    3 ar
     2    1    4 ar
     3    2    3 ar
     4    2    5 ar
     5    3   15 1
     6    4    6 ar
     7    4   11 1
     8    5    6 ar
     9    5   16 1
    10    6   21 1
    11    7    8 2
    12    7   19 1
    13    8    9 1
    14    8   15 1
    15    9   17 2
    16    9   20 1
    17   10   18 2
    18   10   19 1
    19   10   20 1
    20   12   16 1
    21   13   16 1
    22   14   16 1
    23    1   22 1
    24    2   23 1
    25    7   24 1
    26   11   25 1
    27   11   26 1
    28   11   27 1
    29   12   28 1
    30   12   29 1
    31   12   30 1
    32   13   31 1
    33   13   32 1
    34   13   33 1
    35   14   34 1
    36   14   35 1
    37   14   36 1
    38   15   37 1
    39   15   38 1
    40   17   39 1
    41   18   40 1
    42   19   41 1
    43   20   42 1
