@<TRIPOS>MOLECULE
*****
   36    37     0     0     0
SMALL
USER_CHARGES

@<TRIPOS>ATOM
      1 C1          0.7246    2.4831    0.1244 C.ar      1 <0>        -0.1500
      2 C2         -0.6020    2.4476    0.6030 C.ar      1 <0>        -0.1500
      3 C3          1.3752    1.3166   -0.2960 C.ar      1 <0>        -0.1500
      4 C4         -1.3079    1.2454    0.6721 C.ar      1 <0>        -0.1500
      5 C5          0.6743    0.1345   -0.2251 C.ar      1 <0>         0.1000
      6 C6         -0.6416    0.1154    0.2519 C.ar      1 <0>         0.3640
      7 C7         -0.0094   -2.0000   -0.3096 C.2       1 <0>         0.4560
      8 C8         -0.1133   -3.3207   -0.4772 C.2       1 <0>        -0.0410
      9 C9         -1.3778   -5.3840   -0.3375 C.2       1 <0>         0.7800
     10 C10        -1.9185   -7.9420    0.8103 C.3       1 <0>         0.0000
     11 C11        -4.3407   -7.3913    0.4378 C.3       1 <0>         0.0000
     12 C12        -2.7839   -7.5753   -1.5245 C.3       1 <0>         0.0000
     13 C13        -2.9127   -7.1709   -0.0567 C.3       1 <0>         0.2800
     14 N1          1.0457   -1.1560   -0.5627 N.pl3     1 <0>        -0.6000
     15 N2         -1.2411   -4.0178   -0.1748 N.am      1 <0>        -0.5390
     16 N3         -1.1455   -1.2658    0.2195 N.4       1 <0>        -0.6200
     17 O1         -0.5187   -6.1465   -0.7694 O.2       1 <0>        -0.5700
     18 O2         -2.6278   -5.7721    0.0575 O.3       1 <0>        -0.4300
     19 H1          1.2494    3.4343    0.0820 H         1 <0>         0.1500
     20 H2         -1.0785    3.3710    0.9220 H         1 <0>         0.1500
     21 H3          2.3949    1.3529   -0.6623 H         1 <0>         0.1500
     22 H4         -2.3265    1.2108    1.0385 H         1 <0>         0.1500
     23 H5          0.7069   -3.9092   -0.8686 H         1 <0>         0.1500
     24 H6         -0.8923   -7.7864    0.4586 H         1 <0>         0.0000
     25 H7         -1.9765   -7.6360    1.8599 H         1 <0>         0.0000
     26 H8         -2.1045   -9.0206    0.7534 H         1 <0>         0.0000
     27 H9         -5.0575   -6.8398   -0.1813 H         1 <0>         0.0000
     28 H10        -4.4623   -7.0151    1.4600 H         1 <0>         0.0000
     29 H11        -4.6140   -8.4513    0.4237 H         1 <0>         0.0000
     30 H12        -3.4970   -7.0224   -2.1466 H         1 <0>         0.0000
     31 H13        -1.7750   -7.3896   -1.9070 H         1 <0>         0.0000
     32 H14        -3.0166   -8.6381   -1.6577 H         1 <0>         0.0000
     33 H15         1.9327   -1.4521   -0.9325 H         1 <0>         0.4000
     34 H16        -2.0353   -3.5008    0.1950 H         1 <0>         0.3700
     35 H17        -1.4004   -1.5614    1.1706 H         1 <0>         0.4500
     36 H18        -1.9703   -1.3170   -0.3921 H         1 <0>         0.4500
@<TRIPOS>BOND
     1    1    2 ar
     2    1    3 ar
     3    2    4 ar
     4    3    5 ar
     5    4    6 ar
     6    5    6 ar
     7    5   14 1
     8    6   16 1
     9    7    8 2
    10    7   14 1
    11    7   16 1
    12    8   15 1
    13    9   15 am
    14    9   17 2
    15    9   18 1
    16   10   13 1
    17   11   13 1
    18   12   13 1
    19   13   18 1
    20    1   19 1
    21    2   20 1
    22    3   21 1
    23    4   22 1
    24    8   23 1
    25   10   24 1
    26   10   25 1
    27   10   26 1
    28   11   27 1
    29   11   28 1
    30   11   29 1
    31   12   30 1
    32   12   31 1
    33   12   32 1
    34   14   33 1
    35   15   34 1
    36   16   35 1
    37   16   36 1
