@<TRIPOS>MOLECULE
*****
   31    33     0     0     0
SMALL
USER_CHARGES

@<TRIPOS>ATOM
      1 C1          2.1166    2.0131   -0.1817 C.ar      1 <0>        -0.1500
      2 C2         -6.2045    1.1531    1.2635 C.ar      1 <0>        -0.1500
      3 C3          2.8005    0.8274   -0.4402 C.ar      1 <0>        -0.1500
      4 C4         -5.7306    1.3862   -0.0275 C.ar      1 <0>        -0.1500
      5 C5          0.7450    1.9946    0.0764 C.ar      1 <0>        -0.1500
      6 C6         -5.3154    1.1215    2.3378 C.ar      1 <0>        -0.1500
      7 C7          2.1168   -0.3882   -0.4425 C.ar      1 <0>        -0.1500
      8 C8         -4.3674    1.5876   -0.2442 C.ar      1 <0>        -0.1500
      9 C9          0.0531    0.7791    0.0754 C.ar      1 <0>         0.0862
     10 C10        -3.9522    1.3228    2.1210 C.ar      1 <0>        -0.1435
     11 C11         0.7408   -0.4345   -0.1872 C.ar      1 <0>         0.1790
     12 C12        -3.4782    1.5558    0.8301 C.ar      1 <0>         0.1790
     13 C13        -1.4209    0.6915    0.3451 C.2       1 <0>         0.4138
     14 C14        -1.1664   -1.7064    0.0338 C.2       1 <0>         0.7090
     15 C15        -3.0193    1.2826    3.2870 C.3       1 <0>         0.1435
     16 N1          0.1082   -1.7058   -0.2066 N.2       1 <0>        -0.6290
     17 N2         -2.1103    1.7597    0.5932 N.2       1 <0>        -0.6290
     18 N3         -1.9224   -0.5939    0.2987 N.pl3     1 <0>        -0.5000
     19 Cl1        -2.0038   -3.1991    0.0281 Cl        1 <0>        -0.2090
     20 H1          2.6535    2.9576   -0.1807 H         1 <0>         0.1500
     21 H2         -7.2658    0.9958    1.4323 H         1 <0>         0.1500
     22 H3          3.8679    0.8493   -0.6402 H         1 <0>         0.1500
     23 H4         -6.4228    1.4096   -0.8641 H         1 <0>         0.1500
     24 H5          0.2348    2.9328    0.2752 H         1 <0>         0.1500
     25 H6         -5.6948    0.9398    3.3398 H         1 <0>         0.1500
     26 H7          2.6664   -1.3043   -0.6463 H         1 <0>         0.1500
     27 H8         -4.0081    1.7683   -1.2542 H         1 <0>         0.1500
     28 H9         -2.6547    0.2613    3.4464 H         1 <0>         0.0000
     29 H10        -2.1568    1.9410    3.1270 H         1 <0>         0.0000
     30 H11        -3.5161    1.6238    4.2036 H         1 <0>         0.0000
     31 H12        -2.9153   -0.7242    0.4722 H         1 <0>         0.4000
@<TRIPOS>BOND
     1    1    3 ar
     2    1    5 ar
     3    2    4 ar
     4    2    6 ar
     5    3    7 ar
     6    4    8 ar
     7    5    9 ar
     8    6   10 ar
     9    7   11 ar
    10    8   12 ar
    11    9   11 ar
    12    9   13 1
    13   10   12 ar
    14   10   15 1
    15   11   16 1
    16   12   17 1
    17   13   17 2
    18   13   18 1
    19   14   16 2
    20   14   18 1
    21   14   19 1
    22    1   20 1
    23    2   21 1
    24    3   22 1
    25    4   23 1
    26    5   24 1
    27    6   25 1
    28    7   26 1
    29    8   27 1
    30   15   28 1
    31   15   29 1
    32   15   30 1
    33   18   31 1
