@<TRIPOS>MOLECULE
*****
   27    29     0     0     0
SMALL
USER_CHARGES

@<TRIPOS>ATOM
      1 C1         -6.1301   -0.0444    0.7870 C.ar      1 <0>        -0.1500
      2 C2         -5.2906    0.2109    1.8713 C.ar      1 <0>        -0.1500
      3 C3         -5.5851   -0.3348   -0.4638 C.ar      1 <0>        -0.1500
      4 C4         -3.9062    0.1758    1.7049 C.ar      1 <0>        -0.1500
      5 C5         -4.2006   -0.3699   -0.6302 C.ar      1 <0>        -0.1500
      6 C6         -3.3611   -0.1146    0.4542 C.ar      1 <0>         0.0284
      7 C7          0.2646   -1.2548    0.2618 C.2       1 <0>        -0.1500
      8 C8         -1.9163   -0.1512    0.2799 C.2       1 <0>         0.0716
      9 C9          0.8785   -0.1210   -0.0824 C.2       1 <0>        -0.0156
     10 C10        -1.1865   -1.2822    0.4519 C.2       1 <0>         0.1400
     11 C11         0.0576    1.1171   -0.2691 C.2       1 <0>         0.4856
     12 C12         2.2459    0.3009   -0.3548 C.cat     1 <0>         0.7388
     13 N1          0.7969    2.1499   -0.6055 N.2       1 <0>        -0.2800
     14 N2         -1.3037    1.0445   -0.0792 N.pl3     1 <0>        -0.5500
     15 N3          2.1228    1.5962   -0.6435 N.pl3     1 <0>        -0.4744
     16 N4          3.2973   -0.4890   -0.3037 N.pl3     1 <0>        -0.7544
     17 Cl1        -1.8852   -2.8014    0.8953 Cl        1 <0>        -0.1400
     18 H1         -7.2080   -0.0183    0.9168 H         1 <0>         0.1500
     19 H2         -5.7148    0.4359    2.8456 H         1 <0>         0.1500
     20 H3         -6.2385   -0.5347   -1.3079 H         1 <0>         0.1500
     21 H4         -3.2647    0.3770    2.5596 H         1 <0>         0.1500
     22 H5         -3.7909   -0.5977   -1.6114 H         1 <0>         0.1500
     23 H6          0.8315   -2.1686    0.4034 H         1 <0>         0.1500
     24 H7         -1.8939    1.8609   -0.1982 H         1 <0>         0.4000
     25 H8          2.9267    2.1669   -0.8793 H         1 <0>         0.4500
     26 H9          3.2017   -1.4757   -0.0608 H         1 <0>         0.4500
     27 H10         4.2323   -0.1331   -0.5057 H         1 <0>         0.4500
@<TRIPOS>BOND
     1    1    2 ar
     2    1    3 ar
     3    2    4 ar
     4    3    5 ar
     5    4    6 ar
     6    5    6 ar
     7    6    8 1
     8    7    9 2
     9    7   10 1
    10    8   10 2
    11    8   14 1
    12    9   11 1
    13    9   12 1
    14   10   17 1
    15   11   13 2
    16   11   14 1
    17   12   15 2
    18   12   16 1
    19   13   15 1
    20    1   18 1
    21    2   19 1
    22    3   20 1
    23    4   21 1
    24    5   22 1
    25    7   23 1
    26   14   24 1
    27   15   25 1
    28   16   26 1
    29   16   27 1
