@<TRIPOS>MOLECULE
*****
   38    40     0     0     0
SMALL
USER_CHARGES

@<TRIPOS>ATOM
      1 C1         -2.5606    0.6521   -3.6623 C.ar      1 <0>        -0.1500
      2 C2         -1.4147   -0.0733   -4.0120 C.ar      1 <0>        -0.1500
      3 C3         -0.2026    0.7766   -2.0771 C.ar      1 <0>        -0.1500
      4 C4         -2.5230    1.4481   -2.5050 C.ar      1 <0>         0.2272
      5 C5         -1.3555    1.4902   -1.7481 C.ar      1 <0>        -0.1516
      6 C6         -0.2577   -0.0107   -3.2320 C.ar      1 <0>         0.1110
      7 C7         -2.9398    2.7652   -0.8768 C.2       1 <0>         0.2705
      8 C8          0.4134    0.5392    0.8605 C.3       1 <0>         0.0000
      9 C9         -0.0522    2.1725    2.7119 C.3       1 <0>         0.0000
     10 C10         0.8392   -0.4518    1.9392 C.3       1 <0>         0.2800
     11 C11         0.4012    1.0883    3.6848 C.3       1 <0>         0.2800
     12 C12        -0.5899    1.5871    1.3885 C.3       1 <0>         0.0000
     13 C13        -0.7430    2.7160    0.3537 C.3       1 <0>         0.2556
     14 C14        -1.9754    0.9482    1.6039 C.3       1 <0>         0.2800
     15 N1         -3.4959    2.2464   -1.9485 N.2       1 <0>        -0.5653
     16 N2         -1.6507    2.3401   -0.7132 N.pl3     1 <0>         0.0476
     17 N3         -3.4795    3.6211    0.0231 N.pl3     1 <0>        -0.8840
     18 O1          1.3648    0.2317    3.0752 O.3       1 <0>        -0.5600
     19 O2         -2.8434    1.9464    2.0950 O.3       1 <0>        -0.6800
     20 Br1         1.2666   -1.0106   -3.7437 Br        1 <0>        -0.1110
     21 H1         -3.4550    0.5978   -4.2744 H         1 <0>         0.1500
     22 H2         -1.4448   -0.6895   -4.9080 H         1 <0>         0.1500
     23 H3          0.6904    0.8362   -1.4640 H         1 <0>         0.1500
     24 H4          1.3136    1.0609    0.5087 H         1 <0>         0.0000
     25 H5         -0.0003   -0.0000    0.0002 H         1 <0>         0.0000
     26 H6         -0.8023    2.8135    3.1899 H         1 <0>         0.0000
     27 H7          0.8157    2.8074    2.4879 H         1 <0>         0.0000
     28 H8          0.0133   -1.1007    2.2503 H         1 <0>         0.0000
     29 H9          1.6303   -1.1007    1.5494 H         1 <0>         0.0000
     30 H10         0.8760    1.5522    4.5555 H         1 <0>         0.0000
     31 H11        -0.4391    0.4912    4.0552 H         1 <0>         0.0000
     32 H12         0.2287    2.9518   -0.0780 H         1 <0>         0.0000
     33 H13        -1.1255    3.6112    0.8418 H         1 <0>         0.0000
     34 H14        -1.8887    0.1442    2.3270 H         1 <0>         0.0000
     35 H15        -2.3447    0.5693    0.6568 H         1 <0>         0.0000
     36 H16        -4.4289    4.0007   -0.0885 H         1 <0>         0.4000
     37 H17        -2.9327    4.0031    0.8061 H         1 <0>         0.4000
     38 H18        -3.7153    1.5334    2.2278 H         1 <0>         0.4000
@<TRIPOS>BOND
     1    1    2 ar
     2    1    4 ar
     3    2    6 ar
     4    3    5 ar
     5    3    6 ar
     6    4    5 ar
     7    4   15 1
     8    5   16 1
     9    6   20 1
    10    7   15 2
    11    7   16 1
    12    7   17 1
    13    8   10 1
    14    8   12 1
    15    9   11 1
    16    9   12 1
    17   10   18 1
    18   11   18 1
    19   12   13 1
    20   12   14 1
    21   13   16 1
    22   14   19 1
    23    1   21 1
    24    2   22 1
    25    3   23 1
    26    8   24 1
    27    8   25 1
    28    9   26 1
    29    9   27 1
    30   10   28 1
    31   10   29 1
    32   11   30 1
    33   11   31 1
    34   13   32 1
    35   13   33 1
    36   14   34 1
    37   14   35 1
    38   17   36 1
    39   17   37 1
    40   19   38 1
