@<TRIPOS>MOLECULE
*****
   27    28     0     0     0
SMALL
USER_CHARGES

@<TRIPOS>ATOM
      1 C1          4.0529   -2.2043   -0.0564 C.1       1 <0>         0.4841
      2 C2          3.1023   -0.4698    1.3484 C.ar      1 <0>        -0.1500
      3 C3          2.0246    0.1093    2.0183 C.ar      1 <0>        -0.1500
      4 C4          0.5808   -1.6566    1.2219 C.ar      1 <0>        -0.1500
      5 C5          2.9193   -1.6422    0.6152 C.ar      1 <0>         0.0730
      6 C6          0.7638   -0.4841    1.9551 C.ar      1 <0>         0.3490
      7 C7          1.6586   -2.2357    0.5520 C.ar      1 <0>         0.1770
      8 C8         -0.4356    3.6884    3.1405 C.2       1 <0>         0.1000
      9 C9         -1.6352    3.5217    3.7906 C.2       1 <0>        -0.1400
     10 C10        -0.6356    1.4308    2.9740 C.cat     1 <0>         0.8250
     11 C11         0.2493    5.0372    2.9241 C.2       1 <0>         1.0330
     12 C12        -2.5275    4.5208    4.4126 C.3       1 <0>         0.1800
     13 N1          4.9713   -2.6596   -0.6005 N.1       1 <0>        -0.5571
     14 N2          0.0892    2.4939    2.6998 N.pl3     1 <0>        -0.6830
     15 N3         -0.2821    0.0764    2.6091 N.pl3     1 <0>        -0.6310
     16 O1          1.3497    5.0178    2.3069 O.co2     1 <0>        -0.9000
     17 O2         -0.3458    6.0513    3.3819 O.co2     1 <0>        -0.9000
     18 S1         -2.0592    1.8548    3.8221 S.3       1 <0>        -0.1330
     19 Cl1         1.3769   -3.6929   -0.3363 Cl        1 <0>        -0.1770
     20 H1          4.0785    0.0057    1.4101 H         1 <0>         0.1500
     21 H2          2.1754    1.0221    2.5885 H         1 <0>         0.1500
     22 H3         -0.4057   -2.1131    1.1781 H         1 <0>         0.1500
     23 H4         -3.2658    4.8989    3.6871 H         1 <0>         0.0000
     24 H5         -3.0822    4.1024    5.2693 H         1 <0>         0.0000
     25 H6         -1.9678    5.3868    4.8047 H         1 <0>         0.0000
     26 H7          0.9695    2.4017    2.1964 H         1 <0>         0.4500
     27 H8         -1.0206   -0.5741    2.9428 H         1 <0>         0.4500
@<TRIPOS>BOND
     1    1    5 1
     2    1   13 3
     3    2    3 ar
     4    2    5 ar
     5    3    6 ar
     6    4    6 ar
     7    4    7 ar
     8    5    7 ar
     9    6   15 1
    10    7   19 1
    11    8    9 2
    12    8   11 1
    13    8   14 1
    14    9   12 1
    15    9   18 1
    16   10   14 2
    17   10   15 1
    18   10   18 1
    19   11   16 1
    20   11   17 2
    21    2   20 1
    22    3   21 1
    23    4   22 1
    24   12   23 1
    25   12   24 1
    26   12   25 1
    27   14   26 1
    28   15   27 1
