@<TRIPOS>MOLECULE
*****
   43    44     0     0     0
SMALL
USER_CHARGES

@<TRIPOS>ATOM
      1 C1          3.0629    3.0311    0.8011 C.ar      1 <0>        -0.1500
      2 C2          1.3453    3.6365    2.3886 C.ar      1 <0>        -0.1500
      3 C3          1.7142    3.1272    1.1435 C.ar      1 <0>        -0.1435
      4 C4          4.0428    3.4443    1.7037 C.ar      1 <0>        -0.1435
      5 C5          2.3252    4.0497    3.2913 C.ar      1 <0>        -0.1435
      6 C6          3.6740    3.9536    2.9488 C.ar      1 <0>         0.0825
      7 C7         -0.9942    1.1771    1.3086 C.2       1 <0>        -0.0500
      8 C8          0.0742    1.3526    0.5202 C.2       1 <0>        -0.1238
      9 C9          0.7015    0.1052   -0.0304 C.2       1 <0>         0.6466
     10 C10        -0.8862   -1.1816    1.0744 C.2       1 <0>         0.5500
     11 C11         5.4815    3.3338    1.3188 C.3       1 <0>         0.1435
     12 C12         0.3580    4.5996    4.7656 C.3       1 <0>         0.0000
     13 C13         2.4093    6.0579    4.8101 C.3       1 <0>         0.0000
     14 C14         2.4439    3.8048    5.8606 C.3       1 <0>         0.0000
     15 C15         0.6562    2.6807    0.1694 C.3       1 <0>         0.2817
     16 C16         1.9107    4.5926    4.6192 C.3       1 <0>         0.1435
     17 N1          0.1633   -1.1290    0.2922 N.2       1 <0>        -0.6610
     18 N2          1.7372    0.1352   -0.8039 N.2       1 <0>        -0.8500
     19 N3         -1.4876   -0.0602    1.5978 N.pl3     1 <0>        -0.5500
     20 N4         -1.4831   -2.3583    1.4447 N.pl3     1 <0>        -0.8500
     21 O1          4.6322    4.3583    3.8310 O.3       1 <0>        -0.5325
     22 H1          3.3502    2.6336   -0.1696 H         1 <0>         0.1500
     23 H2          0.2933    3.7134    2.6538 H         1 <0>         0.1500
     24 H3         -1.5380    1.9927    1.7682 H         1 <0>         0.1500
     25 H4          5.8140    4.2534    0.8235 H         1 <0>         0.0000
     26 H5          6.1150    3.1615    2.1977 H         1 <0>         0.0000
     27 H6          5.6457    2.4903    0.6367 H         1 <0>         0.0000
     28 H7          0.0266    4.9942    5.7332 H         1 <0>         0.0000
     29 H8         -0.1158    5.2125    3.9910 H         1 <0>         0.0000
     30 H9         -0.0373    3.5816    4.6672 H         1 <0>         0.0000
     31 H10         2.1079    6.4614    5.7829 H         1 <0>         0.0000
     32 H11         3.5007    6.1438    4.7521 H         1 <0>         0.0000
     33 H12         1.9820    6.7081    4.0376 H         1 <0>         0.0000
     34 H13         2.1131    4.2413    6.8108 H         1 <0>         0.0000
     35 H14         2.0930    2.7663    5.8444 H         1 <0>         0.0000
     36 H15         3.5400    3.7949    5.8754 H         1 <0>         0.0000
     37 H16        -0.1440    3.4296    0.1308 H         1 <0>         0.0000
     38 H17         1.0730    2.6354   -0.8435 H         1 <0>         0.0000
     39 H18         1.9933   -0.8231   -1.0578 H         1 <0>         0.4000
     40 H19        -2.2995   -0.1198    2.2015 H         1 <0>         0.4000
     41 H20        -1.0999   -3.2089    1.1024 H         1 <0>         0.4000
     42 H21        -2.2767   -2.3167    2.0414 H         1 <0>         0.4000
     43 H22         5.5136    4.2294    3.4484 H         1 <0>         0.4500
@<TRIPOS>BOND
     1    1    3 ar
     2    1    4 ar
     3    2    3 ar
     4    2    5 ar
     5    3   15 1
     6    4    6 ar
     7    4   11 1
     8    5    6 ar
     9    5   16 1
    10    6   21 1
    11    7    8 2
    12    7   19 1
    13    8    9 1
    14    8   15 1
    15    9   17 1
    16    9   18 2
    17   10   17 2
    18   10   19 1
    19   10   20 1
    20   12   16 1
    21   13   16 1
    22   14   16 1
    23    1   22 1
    24    2   23 1
    25    7   24 1
    26   11   25 1
    27   11   26 1
    28   11   27 1
    29   12   28 1
    30   12   29 1
    31   12   30 1
    32   13   31 1
    33   13   32 1
    34   13   33 1
    35   14   34 1
    36   14   35 1
    37   14   36 1
    38   15   37 1
    39   15   38 1
    40   18   39 1
    41   19   40 1
    42   20   41 1
    43   20   42 1
    44   21   43 1
