@<TRIPOS>MOLECULE
*****
   42    43     0     0     0
SMALL
USER_CHARGES

@<TRIPOS>ATOM
      1 C1         -3.0243   -2.6407   -0.6978 C.ar      1 <0>        -0.1500
      2 C2         -4.3477   -1.0931    0.6023 C.ar      1 <0>        -0.1500
      3 C3         -3.3370   -1.3324   -0.3288 C.ar      1 <0>        -0.1435
      4 C4         -3.7224   -3.7097   -0.1359 C.ar      1 <0>        -0.1435
      5 C5         -5.0458   -2.1620    1.1642 C.ar      1 <0>        -0.1435
      6 C6         -4.7331   -3.4703    0.7951 C.ar      1 <0>        -0.1710
      7 C7         -4.2267    1.6631   -1.5241 C.2       1 <0>         0.3756
      8 C8         -3.3701    0.5285   -1.9911 C.2       1 <0>        -0.1238
      9 C9         -3.4134    0.2801   -3.3223 C.2       1 <0>         0.2000
     10 C10        -4.9957    2.1184   -3.6069 C.2       1 <0>         0.7110
     11 C11        -3.3401   -5.0920   -0.5725 C.3       1 <0>         0.1435
     12 C12        -6.2427   -0.3024    2.3704 C.3       1 <0>         0.0000
     13 C13        -5.8140   -2.4891    3.5411 C.3       1 <0>         0.0000
     14 C14        -7.5518   -2.3291    1.7703 C.3       1 <0>         0.0000
     15 C15        -2.5840   -0.1792   -0.9350 C.3       1 <0>         0.2817
     16 C16        -6.1205   -1.8405    2.1587 C.3       1 <0>         0.1435
     17 N1         -4.9879    2.4127   -2.2582 N.2       1 <0>        -0.6610
     18 N2         -5.7539    2.8624   -4.3543 N.2       1 <0>        -0.8500
     19 N3         -4.2308    1.0857   -4.1058 N.pl3     1 <0>        -0.5500
     20 N4         -2.6874   -0.7247   -3.9096 N.pl3     1 <0>        -0.9000
     21 O1         -5.3758   -4.4547    1.3128 O.3       1 <0>        -0.8290
     22 H1         -2.2356   -2.8248   -1.4238 H         1 <0>         0.1500
     23 H2         -4.5896   -0.0720    0.8885 H         1 <0>         0.1500
     24 H3         -4.1910    1.8640   -0.4402 H         1 <0>         0.0600
     25 H4         -2.5555   -5.4868    0.0800 H         1 <0>         0.0000
     26 H5         -4.2027   -5.7655   -0.5369 H         1 <0>         0.0000
     27 H6         -2.9742   -5.0885   -1.6046 H         1 <0>         0.0000
     28 H7         -7.0229   -0.0397    3.0944 H         1 <0>         0.0000
     29 H8         -5.3059    0.1299    2.7389 H         1 <0>         0.0000
     30 H9         -6.4846    0.1952    1.4238 H         1 <0>         0.0000
     31 H10        -6.5936   -2.2603    4.2759 H         1 <0>         0.0000
     32 H11        -5.7385   -3.5814    3.4840 H         1 <0>         0.0000
     33 H12        -4.8654   -2.1096    3.9390 H         1 <0>         0.0000
     34 H13        -8.3017   -2.0707    2.5278 H         1 <0>         0.0000
     35 H14        -7.8785   -1.8762    0.8269 H         1 <0>         0.0000
     36 H15        -7.5757   -3.4188    1.6525 H         1 <0>         0.0000
     37 H16        -2.3108    0.5343   -0.1496 H         1 <0>         0.0000
     38 H17        -1.6399   -0.5292   -1.3661 H         1 <0>         0.0000
     39 H18        -5.6727    2.5466   -5.3229 H         1 <0>         0.4000
     40 H19        -4.2407    0.8745   -5.0980 H         1 <0>         0.4000
     41 H20        -2.1100   -1.2876   -3.3297 H         1 <0>         0.4000
     42 H21        -2.7674   -0.8502   -4.8915 H         1 <0>         0.4000
@<TRIPOS>BOND
     1    1    3 ar
     2    1    4 ar
     3    2    3 ar
     4    2    5 ar
     5    3   15 1
     6    4    6 ar
     7    4   11 1
     8    5    6 ar
     9    5   16 1
    10    6   21 1
    11    7    8 1
    12    7   17 2
    13    8    9 2
    14    8   15 1
    15    9   19 1
    16    9   20 1
    17   10   17 1
    18   10   18 2
    19   10   19 1
    20   12   16 1
    21   13   16 1
    22   14   16 1
    23    1   22 1
    24    2   23 1
    25    7   24 1
    26   11   25 1
    27   11   26 1
    28   11   27 1
    29   12   28 1
    30   12   29 1
    31   12   30 1
    32   13   31 1
    33   13   32 1
    34   13   33 1
    35   14   34 1
    36   14   35 1
    37   14   36 1
    38   15   37 1
    39   15   38 1
    40   18   39 1
    41   19   40 1
    42   20   41 1
    43   20   42 1
