@<TRIPOS>MOLECULE
*****
   27    29     0     0     0
SMALL
USER_CHARGES

@<TRIPOS>ATOM
      1 C1         -2.8164    4.6704    2.8654 C.ar      1 <0>        -0.1500
      2 C2         -1.5266    4.8387    2.3615 C.ar      1 <0>        -0.1500
      3 C3         -3.4402    3.4254    2.7837 C.ar      1 <0>        -0.1500
      4 C4         -0.8607    3.7620    1.7759 C.ar      1 <0>        -0.1500
      5 C5         -2.7742    2.3488    2.1981 C.ar      1 <0>        -0.1500
      6 C6         -1.4845    2.5170    1.6941 C.ar      1 <0>         0.0284
      7 C7         -0.7902    1.3934    1.0831 C.2       1 <0>         0.0716
      8 C8          0.4132   -0.6604   -0.3276 C.2       1 <0>        -0.1238
      9 C9         -0.0078    0.5466    1.7961 C.2       1 <0>         0.0018
     10 C10        -0.3678    0.2016   -0.9913 C.2       1 <0>         0.2710
     11 C11         0.8248   -1.5396   -1.3983 C.cat     1 <0>         0.5966
     12 C12         0.7054   -0.6218    1.1289 C.3       1 <0>         0.2764
     13 N1         -0.4412   -0.0984   -2.3292 N.2       1 <0>        -0.1710
     14 N2          0.2562   -1.1200   -2.5771 N.2       1 <0>        -0.2110
     15 N3         -0.9662    1.2255   -0.2839 N.pl3     1 <0>        -0.6000
     16 N4          1.5945   -2.5535   -1.2882 N.pl3     1 <0>        -0.2000
     17 Cl1         0.2605    0.6913    3.4974 Cl        1 <0>        -0.1400
     18 H1         -3.3344    5.5083    3.3226 H         1 <0>         0.1500
     19 H2         -1.0403    5.8077    2.4261 H         1 <0>         0.1500
     20 H3         -4.4439    3.2940    3.1771 H         1 <0>         0.1500
     21 H4          0.1443    3.9087    1.3874 H         1 <0>         0.1500
     22 H5         -3.2738    1.3846    2.1418 H         1 <0>         0.1500
     23 H6          0.3779   -1.5606    1.5903 H         1 <0>         0.0000
     24 H7          1.7866   -0.5242    1.2806 H         1 <0>         0.0000
     25 H8         -1.5564    1.8739   -0.7904 H         1 <0>         0.4000
     26 H9          2.0042   -2.8407   -0.3836 H         1 <0>         0.4000
     27 H10         1.8508   -3.1434   -2.0975 H         1 <0>         0.4000
@<TRIPOS>BOND
     1    1    2 ar
     2    1    3 ar
     3    2    4 ar
     4    3    5 ar
     5    4    6 ar
     6    5    6 ar
     7    6    7 1
     8    7    9 2
     9    7   15 1
    10    8   10 2
    11    8   11 1
    12    8   12 1
    13    9   12 1
    14    9   17 1
    15   10   13 1
    16   10   15 1
    17   11   14 1
    18   11   16 2
    19   13   14 2
    20    1   18 1
    21    2   19 1
    22    3   20 1
    23    4   21 1
    24    5   22 1
    25   12   23 1
    26   12   24 1
    27   15   25 1
    28   16   26 1
    29   16   27 1
