@<TRIPOS>MOLECULE
*****
   40    42     0     0     0
SMALL
USER_CHARGES

@<TRIPOS>ATOM
      1 C1          0.6247   -0.8290    5.4044 C.ar      1 <0>        -0.1500
      2 C2          2.6033    0.5394    5.6270 C.ar      1 <0>        -0.1500
      3 C3          0.2701   -0.1289    4.2513 C.ar      1 <0>        -0.1500
      4 C4          2.2488    1.2396    4.4739 C.ar      1 <0>        -0.1500
      5 C5          1.7912   -0.4948    6.0923 C.ar      1 <0>        -0.1435
      6 C6          1.0822    0.9054    3.7860 C.ar      1 <0>        -0.1435
      7 C7          1.9814   -0.0037    1.1476 C.2       1 <0>        -0.3500
      8 C8          0.9889    0.8930    1.2923 C.2       1 <0>        -0.1238
      9 C9          0.1773    1.0602    0.0605 C.cat     1 <0>         0.5966
     10 C10         1.5272   -0.5130   -0.9818 C.2       1 <0>         0.0100
     11 C11        -1.6282    2.0243   -1.2660 C.3       1 <0>         0.3461
     12 C12        -1.2538    2.7154    1.1383 C.3       1 <0>         0.3461
     13 C13        -3.0393    2.4504   -0.8914 C.3       1 <0>         0.2800
     14 C14        -1.9219    3.9729    0.6041 C.3       1 <0>         0.2800
     15 C15         2.1710   -1.2429    7.3252 C.3       1 <0>         0.1435
     16 C16         0.6997    1.6595    2.5404 C.3       1 <0>         0.2817
     17 N1          2.3195   -0.7420    0.0651 N.2       1 <0>        -0.5800
     18 N2          0.5231    0.3090   -1.0386 N.2       1 <0>        -0.6610
     19 N3          1.8368   -1.2241   -2.0576 N.2       1 <0>        -0.9300
     20 N4         -0.8509    1.8924   -0.0185 N.pl3     1 <0>        -0.0922
     21 O1         -3.0769    3.6951   -0.1902 O.3       1 <0>        -0.5600
     22 H1         -0.0143   -1.6330    5.7600 H         1 <0>         0.1500
     23 H2          3.5146    0.8056    6.1562 H         1 <0>         0.1500
     24 H3         -0.6396   -0.3971    3.7209 H         1 <0>         0.1500
     25 H4          2.8870    2.0442    4.1183 H         1 <0>         0.1500
     26 H5          2.5913   -0.1430    2.0414 H         1 <0>         0.1500
     27 H6         -1.6313    1.0765   -1.8130 H         1 <0>         0.0000
     28 H7         -1.1298    2.7914   -1.8672 H         1 <0>         0.0000
     29 H8         -0.3373    2.9573    1.6862 H         1 <0>         0.0000
     30 H9         -1.9287    2.1512    1.7891 H         1 <0>         0.0000
     31 H10        -3.6465    2.5678   -1.8073 H         1 <0>         0.0000
     32 H11        -3.5503    1.6773   -0.2829 H         1 <0>         0.0000
     33 H12        -2.2070    4.6611    1.4251 H         1 <0>         0.0000
     34 H13        -1.2093    4.5319   -0.0293 H         1 <0>         0.0000
     35 H14         2.7974   -2.1066    7.0704 H         1 <0>         0.0000
     36 H15         2.7270   -0.6040    8.0237 H         1 <0>         0.0000
     37 H16         1.2836   -1.6030    7.8621 H         1 <0>         0.0000
     38 H17        -0.3679    1.9061    2.5753 H         1 <0>         0.0000
     39 H18         1.2283    2.6188    2.5037 H         1 <0>         0.0000
     40 H19         1.9817   -2.1958   -1.7744 H         1 <0>         0.1500
@<TRIPOS>BOND
     1    1    3 ar
     2    1    5 ar
     3    2    4 ar
     4    2    5 ar
     5    3    6 ar
     6    4    6 ar
     7    5   15 1
     8    6   16 1
     9    7    8 2
    10    7   17 1
    11    8    9 1
    12    8   16 1
    13    9   18 1
    14    9   20 2
    15   10   17 1
    16   10   18 2
    17   10   19 1
    18   11   13 1
    19   11   20 1
    20   12   14 1
    21   12   20 1
    22   13   21 1
    23   14   21 1
    24    1   22 1
    25    2   23 1
    26    3   24 1
    27    4   25 1
    28    7   26 1
    29   11   27 1
    30   11   28 1
    31   12   29 1
    32   12   30 1
    33   13   31 1
    34   13   32 1
    35   14   33 1
    36   14   34 1
    37   15   35 1
    38   15   36 1
    39   15   37 1
    40   16   38 1
    41   16   39 1
    42   19   40 1
