@<TRIPOS>MOLECULE
*****
   31    33     0     0     0
SMALL
USER_CHARGES

@<TRIPOS>ATOM
      1 C1          7.4524    1.8463    3.1152 C.ar      1 <0>        -0.1500
      2 C2          5.3890   -4.3448   -1.8647 C.ar      1 <0>        -0.1500
      3 C3          6.5987    2.8734    3.5018 C.ar      1 <0>        -0.1500
      4 C4          4.8570   -3.0616   -1.9906 C.ar      1 <0>        -0.1500
      5 C5          6.9280    0.7103    2.5066 C.ar      1 <0>        -0.1500
      6 C6          6.0518   -4.7133   -0.6939 C.ar      1 <0>        -0.1500
      7 C7          5.2231    2.7629    3.2789 C.ar      1 <0>        -0.1500
      8 C8          4.9878   -2.1467   -0.9458 C.ar      1 <0>        -0.1500
      9 C9          5.5435    0.6067    2.2860 C.ar      1 <0>         0.0000
     10 C10         6.1826   -3.7985    0.3509 C.ar      1 <0>        -0.1435
     11 C11         4.6711    1.6375    2.6718 C.ar      1 <0>         0.3100
     12 C12         5.6505   -2.5152    0.2250 C.ar      1 <0>         0.1000
     13 C13         4.9553   -0.5013    1.6825 C.ar      1 <0>         0.4100
     14 C14         2.8984    0.4239    1.8714 C.ar      1 <0>         0.7970
     15 C15         6.8973   -4.2200    1.5934 C.3       1 <0>         0.1435
     16 N1          3.3455    1.5490    2.4654 N.ar      1 <0>        -0.6200
     17 N2          3.6329   -0.6226    1.4611 N.ar      1 <0>        -0.6200
     18 N3          5.7727   -1.5815    1.2662 N.pl3     1 <0>        -0.6000
     19 Cl1         1.2122    0.3200    1.6132 Cl        1 <0>        -0.1770
     20 H1          8.5211    1.9303    3.2874 H         1 <0>         0.1500
     21 H2          5.2871   -5.0570   -2.6783 H         1 <0>         0.1500
     22 H3          6.9999    3.7636    3.9777 H         1 <0>         0.1500
     23 H4          4.3409   -2.7748   -2.9022 H         1 <0>         0.1500
     24 H5          7.6154   -0.0789    2.2136 H         1 <0>         0.1500
     25 H6          6.4627   -5.7156   -0.6058 H         1 <0>         0.1500
     26 H7          4.5765    3.5810    3.5909 H         1 <0>         0.1500
     27 H8          4.5691   -1.1495   -1.0553 H         1 <0>         0.1500
     28 H9          7.9672   -3.9979    1.5094 H         1 <0>         0.0000
     29 H10         6.5000   -3.7008    2.4740 H         1 <0>         0.0000
     30 H11         6.7759   -5.2951    1.7743 H         1 <0>         0.0000
     31 H12         6.6043   -1.6958    1.8334 H         1 <0>         0.4000
@<TRIPOS>BOND
     1    1    3 ar
     2    1    5 ar
     3    2    4 ar
     4    2    6 ar
     5    3    7 ar
     6    4    8 ar
     7    5    9 ar
     8    6   10 ar
     9    7   11 ar
    10    8   12 ar
    11    9   11 ar
    12    9   13 ar
    13   10   12 ar
    14   10   15 1
    15   11   16 ar
    16   12   18 1
    17   13   17 ar
    18   13   18 1
    19   14   16 ar
    20   14   17 ar
    21   14   19 1
    22    1   20 1
    23    2   21 1
    24    3   22 1
    25    4   23 1
    26    5   24 1
    27    6   25 1
    28    7   26 1
    29    8   27 1
    30   15   28 1
    31   15   29 1
    32   15   30 1
    33   18   31 1
