@<TRIPOS>MOLECULE
*****
   35    37     0     0     0
SMALL
USER_CHARGES

@<TRIPOS>ATOM
      1 C1          4.6322   -0.6617    5.3819 C.ar      1 <0>        -0.1500
      2 C2          3.7461    0.3922    5.5754 C.ar      1 <0>        -0.1500
      3 C3          5.0491   -0.9802    4.0933 C.ar      1 <0>        -0.1500
      4 C4          3.2791    1.1254    4.4806 C.ar      1 <0>        -0.1500
      5 C5          6.6930   -2.0352   -0.8061 C.ar      1 <0>        -0.1500
      6 C6          6.5390   -2.6353   -2.0558 C.ar      1 <0>        -0.1500
      7 C7          4.4564   -2.7199   -0.2015 C.ar      1 <0>        -0.1500
      8 C8          4.5749   -0.2381    2.9975 C.ar      1 <0>         0.0000
      9 C9          3.6799    0.8287    3.1802 C.ar      1 <0>         0.3100
     10 C10         5.6518   -2.0776    0.1211 C.ar      1 <0>        -0.2520
     11 C11         5.3436   -3.2776   -2.3784 C.ar      1 <0>         0.0825
     12 C12         4.3022   -3.3200   -1.4513 C.ar      1 <0>         0.0825
     13 C13         4.9525   -0.5044    1.6844 C.ar      1 <0>         0.0580
     14 C14         3.6610    1.1880    0.9160 C.ar      1 <0>         0.7970
     15 C15         6.3177   -3.7719   -4.4909 C.3       1 <0>         0.2800
     16 C16         2.1132   -3.1534   -2.3657 C.3       1 <0>         0.2800
     17 N1          3.2203    1.5451    2.1394 N.ar      1 <0>        -0.6200
     18 N2          4.5117    0.1922    0.6199 N.ar      1 <0>        -0.6200
     19 N3          5.8029   -1.4920    1.3415 N.2       1 <0>        -0.4960
     20 O1          5.2059   -3.8604   -3.6020 O.3       1 <0>        -0.3625
     21 O2          3.1303   -3.9448   -1.7548 O.3       1 <0>        -0.3625
     22 Cl1         3.0730    2.1049   -0.4007 Cl        1 <0>        -0.1770
     23 H1          4.9962   -1.2323    6.2307 H         1 <0>         0.1500
     24 H2          3.4156    0.6470    6.5783 H         1 <0>         0.1500
     25 H3          5.7414   -1.8093    3.9682 H         1 <0>         0.1500
     26 H4          2.5865    1.9457    4.6599 H         1 <0>         0.1500
     27 H5          7.6327   -1.5395   -0.5727 H         1 <0>         0.1500
     28 H6          7.3540   -2.5993   -2.7738 H         1 <0>         0.1500
     29 H7          3.6368   -2.7595    0.5138 H         1 <0>         0.1500
     30 H8          6.0758   -4.2765   -5.4295 H         1 <0>         0.0000
     31 H9          7.1922   -4.2374   -4.0295 H         1 <0>         0.0000
     32 H10         6.5305   -2.7189   -4.6903 H         1 <0>         0.0000
     33 H11         1.2329   -3.7726   -2.5546 H         1 <0>         0.0000
     34 H12         2.4881   -2.7381   -3.3046 H         1 <0>         0.0000
     35 H13         1.8440   -2.3377   -1.6905 H         1 <0>         0.0000
@<TRIPOS>BOND
     1    1    2 ar
     2    1    3 ar
     3    2    4 ar
     4    3    8 ar
     5    4    9 ar
     6    5    6 ar
     7    5   10 ar
     8    6   11 ar
     9    7   10 ar
    10    7   12 ar
    11    8    9 ar
    12    8   13 ar
    13    9   17 ar
    14   10   19 1
    15   11   12 ar
    16   11   20 1
    17   12   21 1
    18   13   18 ar
    19   13   19 1
    20   14   17 ar
    21   14   18 ar
    22   14   22 1
    23   15   20 1
    24   16   21 1
    25    1   23 1
    26    2   24 1
    27    3   25 1
    28    4   26 1
    29    5   27 1
    30    6   28 1
    31    7   29 1
    32   15   30 1
    33   15   31 1
    34   15   32 1
    35   16   33 1
    36   16   34 1
    37   16   35 1
