@<TRIPOS>MOLECULE
*****
   38    39     0     0     0
SMALL
USER_CHARGES

@<TRIPOS>ATOM
      1 C1          1.9072   -3.3870   -2.5520 C.ar      1 <0>        -0.1500
      2 C2          1.6978   -3.4024   -0.1452 C.ar      1 <0>        -0.1500
      3 C3          1.2233   -3.0091   -1.3966 C.ar      1 <0>        -0.1435
      4 C4          3.5399   -4.5517   -1.2048 C.ar      1 <0>        -0.1710
      5 C5          3.0655   -4.1583   -2.4561 C.ar      1 <0>         0.0825
      6 C6          2.8560   -4.1737   -0.0493 C.ar      1 <0>         0.0825
      7 C7         -1.2699   -2.9818   -1.2952 C.2       1 <0>        -0.1238
      8 C8         -2.0375   -2.9746   -0.1820 C.2       1 <0>         0.1767
      9 C9         -1.7197   -3.8891   -2.4313 C.2       1 <0>         0.6466
     10 C10        -3.5197   -4.5557   -1.1577 C.2       1 <0>         0.2800
     11 C11         3.3010   -5.7255   -4.2294 C.3       1 <0>         0.2800
     12 C12         2.7835   -5.7635    1.7179 C.3       1 <0>         0.2800
     13 C13        -2.7350   -1.2643    1.2200 C.3       1 <0>         0.2800
     14 C14        -0.0259   -2.1772   -1.4999 C.3       1 <0>         0.2817
     15 N1         -2.8678   -4.6491   -2.2749 N.2       1 <0>        -0.6610
     16 N2         -4.6216   -5.2640   -0.9661 N.2       1 <0>        -0.9300
     17 N3         -1.0702   -3.9810   -3.5455 N.2       1 <0>        -0.8500
     18 N4         -3.1611   -3.7588   -0.1100 N.pl3     1 <0>        -0.5500
     19 O1          4.6067   -5.2620   -1.1165 O.3       1 <0>        -0.8290
     20 O2          3.7010   -4.5041   -3.6156 O.3       1 <0>        -0.3625
     21 O3          3.2821   -4.5349    1.1980 O.3       1 <0>        -0.3625
     22 O4         -1.7228   -2.1913    0.9058 O.3       1 <0>        -0.3567
     23 H1          1.5384   -3.0810   -3.5281 H         1 <0>         0.1500
     24 H2          1.1655   -3.1084    0.7563 H         1 <0>         0.1500
     25 H3          3.8820   -5.8832   -5.1414 H         1 <0>         0.0000
     26 H4          2.2350   -5.6832   -4.4664 H         1 <0>         0.0000
     27 H5          3.4856   -6.5491   -3.5356 H         1 <0>         0.0000
     28 H6          3.1984   -5.9334    2.7145 H         1 <0>         0.0000
     29 H7          3.0631   -6.5827    1.0507 H         1 <0>         0.0000
     30 H8          1.6945   -5.7057    1.7841 H         1 <0>         0.0000
     31 H9         -2.4320   -0.6728    2.0874 H         1 <0>         0.0000
     32 H10        -3.6644   -1.7974    1.4359 H         1 <0>         0.0000
     33 H11        -2.8877   -0.6013    0.3652 H         1 <0>         0.0000
     34 H12         0.0070   -1.3706   -0.7595 H         1 <0>         0.0000
     35 H13        -0.0747   -1.6876   -2.4782 H         1 <0>         0.0000
     36 H14        -4.9806   -5.5639   -1.8761 H         1 <0>         0.1500
     37 H15        -1.5506   -4.6449   -4.1595 H         1 <0>         0.4000
     38 H16        -3.7077   -3.7243    0.7427 H         1 <0>         0.4000
@<TRIPOS>BOND
     1    1    3 ar
     2    1    5 ar
     3    2    3 ar
     4    2    6 ar
     5    3   14 1
     6    4    5 ar
     7    4    6 ar
     8    4   19 1
     9    5   20 1
    10    6   21 1
    11    7    8 2
    12    7    9 1
    13    7   14 1
    14    8   18 1
    15    8   22 1
    16    9   15 1
    17    9   17 2
    18   10   15 2
    19   10   16 1
    20   10   18 1
    21   11   20 1
    22   12   21 1
    23   13   22 1
    24    1   23 1
    25    2   24 1
    26   11   25 1
    27   11   26 1
    28   11   27 1
    29   12   28 1
    30   12   29 1
    31   12   30 1
    32   13   31 1
    33   13   32 1
    34   13   33 1
    35   14   34 1
    36   14   35 1
    37   16   36 1
    38   17   37 1
    39   18   38 1
