@<TRIPOS>MOLECULE
*****
   26    27     0     0     0
SMALL
USER_CHARGES

@<TRIPOS>ATOM
      1 C1         -3.8424    1.3383   -5.2124 C.1       1 <0>         0.1530
      2 C2          2.9156   -2.0589   -3.7372 C.2       1 <0>         0.1412
      3 C3          2.4927   -3.2512   -4.2866 C.2       1 <0>        -0.1400
      4 C4          0.8524   -2.0512   -2.9935 C.2       1 <0>         0.5041
      5 C5         -3.2927    0.2382   -3.1890 C.2       1 <0>        -0.1500
      6 C6         -2.4445   -0.5030   -2.4651 C.2       1 <0>        -0.1356
      7 C7         -0.8538   -0.5588   -4.4591 C.2       1 <0>        -0.1356
      8 C8         -2.9788    0.6147   -4.5556 C.2       1 <0>         0.0650
      9 C9         -1.7244    0.1846   -5.1593 C.2       1 <0>         0.1400
     10 C10        -1.1522   -0.9590   -3.0533 C.2       1 <0>         0.4212
     11 C11         4.2386   -1.5218   -3.8954 C.2       1 <0>         0.8060
     12 C12         3.2195   -4.2290   -5.1218 C.3       1 <0>         0.1800
     13 N1         -4.6724    2.0338   -5.8438 N.1       1 <0>        -0.2180
     14 N2          1.9762   -1.3692   -2.9958 N.2       1 <0>        -0.5653
     15 N3         -0.3347   -1.6742   -2.3474 N.2       1 <0>        -0.5760
     16 O1          5.1707   -2.0438   -4.5360 O.2       1 <0>        -0.5700
     17 O2          4.4135   -0.3249   -3.2561 O.3       1 <0>        -0.6500
     18 S1          0.8546   -3.5310   -3.8624 S.3       1 <0>        -0.0800
     19 Cl1        -1.3352    0.6259   -6.7892 Cl        1 <0>        -0.1400
     20 H1         -4.2317    0.5639   -2.7515 H         1 <0>         0.1500
     21 H2         -2.6719   -0.7860   -1.4437 H         1 <0>         0.1500
     22 H3          0.0875   -0.8942   -4.8827 H         1 <0>         0.1500
     23 H4          3.7180   -4.9890   -4.4989 H         1 <0>         0.0000
     24 H5          2.5476   -4.7550   -5.8206 H         1 <0>         0.0000
     25 H6          3.9912   -3.7463   -5.7450 H         1 <0>         0.0000
     26 H7          5.3138    0.0509   -3.3588 H         1 <0>         0.5000
@<TRIPOS>BOND
     1    1    8 2
     2    1   13 2
     3    2    3 2
     4    2   11 1
     5    2   14 1
     6    3   12 1
     7    3   18 1
     8    4   14 2
     9    4   15 1
    10    4   18 1
    11    5    6 2
    12    5    8 1
    13    6   10 1
    14    7    9 2
    15    7   10 1
    16    8    9 1
    17    9   19 1
    18   10   15 2
    19   11   16 2
    20   11   17 1
    21    5   20 1
    22    6   21 1
    23    7   22 1
    24   12   23 1
    25   12   24 1
    26   12   25 1
    27   17   26 1
