@<TRIPOS>MOLECULE
*****
   42    43     0     0     0
SMALL
USER_CHARGES

@<TRIPOS>ATOM
      1 C1          0.2382    1.8566   -3.5272 C.ar      1 <0>        -0.1500
      2 C2          1.8183    3.5606   -2.8667 C.ar      1 <0>        -0.1500
      3 C3          1.2658    2.2920   -2.6906 C.ar      1 <0>        -0.1435
      4 C4         -0.2370    2.6898   -4.5400 C.ar      1 <0>        -0.1435
      5 C5          1.3431    4.3938   -3.8794 C.ar      1 <0>        -0.1435
      6 C6          0.3155    3.9584   -4.7161 C.ar      1 <0>         0.0825
      7 C7          4.2813    1.2772   -1.6678 C.2       1 <0>        -0.0500
      8 C8          3.0835    0.7558   -1.9401 C.2       1 <0>        -0.1238
      9 C9          3.1148   -0.5646   -2.6404 C.2       1 <0>         0.2156
     10 C10         5.4385   -0.5858   -2.6606 C.2       1 <0>         0.2800
     11 C11        -1.3379    2.2059   -5.4254 C.3       1 <0>         0.1435
     12 C12         3.0713    6.0027   -3.0015 C.3       1 <0>         0.0000
     13 C13         0.8766    6.8696   -3.8781 C.3       1 <0>         0.0000
     14 C14         2.6079    6.0147   -5.4443 C.3       1 <0>         0.0000
     15 C15         1.7794    1.3922   -1.5973 C.3       1 <0>         0.2817
     16 C16         1.9470    5.7487   -4.0520 C.3       1 <0>         0.1435
     17 N1          4.2686   -1.1625   -2.9627 N.2       1 <0>        -0.5600
     18 N2          2.0159   -1.1733   -2.9580 N.2       1 <0>        -0.8500
     19 N3          6.5226   -1.2143   -2.9970 N.2       1 <0>        -0.8500
     20 N4          5.4245    0.6287   -2.0162 N.pl3     1 <0>        -0.5500
     21 O1         -0.1498    4.7733   -5.7059 O.3       1 <0>        -0.5325
     22 H1         -0.1920    0.8672   -3.3900 H         1 <0>         0.1500
     23 H2          2.6178    3.9002   -2.2122 H         1 <0>         0.1500
     24 H3          4.4288    2.2246   -1.1658 H         1 <0>         0.1500
     25 H4         -2.3124    2.4754   -5.0019 H         1 <0>         0.0000
     26 H5         -1.2603    2.6420   -6.4290 H         1 <0>         0.0000
     27 H6         -1.2989    1.1162   -5.5470 H         1 <0>         0.0000
     28 H7          3.5319    6.9920   -3.1065 H         1 <0>         0.0000
     29 H8          2.6873    5.9357   -1.9777 H         1 <0>         0.0000
     30 H9          3.8644    5.2527   -3.1052 H         1 <0>         0.0000
     31 H10         1.3142    7.8659   -4.0037 H         1 <0>         0.0000
     32 H11         0.0566    6.7866   -4.6010 H         1 <0>         0.0000
     33 H12         0.4409    6.8259   -2.8729 H         1 <0>         0.0000
     34 H13         3.0364    7.0212   -5.5220 H         1 <0>         0.0000
     35 H14         3.4208    5.3037   -5.6330 H         1 <0>         0.0000
     36 H15         1.8725    5.9148   -6.2511 H         1 <0>         0.0000
     37 H16         1.8879    1.9695   -0.6710 H         1 <0>         0.0000
     38 H17         1.0426    0.6104   -1.3776 H         1 <0>         0.0000
     39 H18         2.2469   -2.0533   -3.4257 H         1 <0>         0.4000
     40 H19         7.3303   -0.6593   -2.7053 H         1 <0>         0.4000
     41 H20         6.2979    1.0862   -1.7766 H         1 <0>         0.4000
     42 H21        -0.8591    4.3305   -6.1966 H         1 <0>         0.4500
@<TRIPOS>BOND
     1    1    3 ar
     2    1    4 ar
     3    2    3 ar
     4    2    5 ar
     5    3   15 1
     6    4    6 ar
     7    4   11 1
     8    5    6 ar
     9    5   16 1
    10    6   21 1
    11    7    8 2
    12    7   20 1
    13    8    9 1
    14    8   15 1
    15    9   17 1
    16    9   18 2
    17   10   17 1
    18   10   19 2
    19   10   20 1
    20   12   16 1
    21   13   16 1
    22   14   16 1
    23    1   22 1
    24    2   23 1
    25    7   24 1
    26   11   25 1
    27   11   26 1
    28   11   27 1
    29   12   28 1
    30   12   29 1
    31   12   30 1
    32   13   31 1
    33   13   32 1
    34   13   33 1
    35   14   34 1
    36   14   35 1
    37   14   36 1
    38   15   37 1
    39   15   38 1
    40   18   39 1
    41   19   40 1
    42   20   41 1
    43   21   42 1
