@<TRIPOS>MOLECULE
*****
   19    20     0     0     0
SMALL
USER_CHARGES

@<TRIPOS>ATOM
      1 C1         -0.7362    2.4983   -0.6009 C.ar      1 <0>        -0.1500
      2 C2         -1.4600    1.3111   -0.4547 C.ar      1 <0>        -0.1500
      3 C3          1.3453    1.3477   -0.0982 C.ar      1 <0>        -0.1500
      4 C4          0.6114    0.1807    0.0426 C.ar      1 <0>         0.3640
      5 C5          0.6563    2.5164   -0.4240 C.ar      1 <0>         0.0825
      6 C6         -0.7722    0.1525   -0.1312 C.ar      1 <0>         0.1015
      7 C7          0.1535   -2.0764    0.4401 C.2       1 <0>         0.4570
      8 C8          0.4363   -3.3480    0.7333 C.2       1 <0>        -0.3000
      9 N1          1.2078   -1.1120    0.3821 N.4       1 <0>        -0.6200
     10 O1          1.3383    3.6865   -0.5707 O.3       1 <0>        -0.5325
     11 S1         -1.4423   -1.4702    0.1103 S.3       1 <0>        -0.2025
     12 H1         -1.2621    3.4156   -0.8543 H         1 <0>         0.1500
     13 H2         -2.5363    1.3101   -0.5939 H         1 <0>         0.1500
     14 H3          2.4216    1.3540    0.0395 H         1 <0>         0.1500
     15 H4         -0.3495   -4.0925    0.7817 H         1 <0>         0.1500
     16 H5          1.4564   -3.6574    0.9280 H         1 <0>         0.1500
     17 H6          1.9064   -1.3498   -0.3352 H         1 <0>         0.4500
     18 H7          1.6958   -1.0220    1.2839 H         1 <0>         0.4500
     19 H8          0.7264    4.4052   -0.7945 H         1 <0>         0.4500
@<TRIPOS>BOND
     1    1    2 ar
     2    1    5 ar
     3    2    6 ar
     4    3    4 ar
     5    3    5 ar
     6    4    6 ar
     7    4    9 1
     8    5   10 1
     9    6   11 1
    10    7    8 2
    11    7    9 1
    12    7   11 1
    13    1   12 1
    14    2   13 1
    15    3   14 1
    16    8   15 1
    17    8   16 1
    18    9   17 1
    19    9   18 1
    20   10   19 1
