@<TRIPOS>MOLECULE
*****
   27    28     0     0     0
SMALL
USER_CHARGES

@<TRIPOS>ATOM
      1 C1          4.0480   -2.1826   -0.0826 C.1       1 <0>         0.4841
      2 C2          2.8800   -0.2540    0.8124 C.ar      1 <0>        -0.1500
      3 C3          1.8010    0.3208    1.4839 C.ar      1 <0>        -0.1500
      4 C4          0.8057   -1.8639    1.7547 C.ar      1 <0>        -0.1500
      5 C5          2.9219   -1.6338    0.6120 C.ar      1 <0>         0.0730
      6 C6          0.7638   -0.4841    1.9551 C.ar      1 <0>         0.1000
      7 C7          1.8847   -2.4387    1.0832 C.ar      1 <0>         0.1770
      8 C8         -0.4800    3.6059    3.1801 C.2       1 <0>         0.1412
      9 C9         -1.6849    3.4240    3.8259 C.2       1 <0>        -0.1400
     10 C10        -0.6352    1.4273    2.9809 C.2       1 <0>         0.4621
     11 C11         0.1523    4.8829    2.9962 C.2       1 <0>         0.8060
     12 C12        -2.5887    4.4076    4.4570 C.3       1 <0>         0.1800
     13 N1          4.9604   -2.6272   -0.6454 N.1       1 <0>        -0.5571
     14 N2          0.1236    2.4620    2.6953 N.2       1 <0>        -0.5653
     15 N3         -0.3261    0.0974    2.6356 N.pl3     1 <0>        -0.5840
     16 O1         -0.2872    5.9818    3.3845 O.2       1 <0>        -0.5700
     17 O2          1.3422    4.8025    2.3259 O.3       1 <0>        -0.6500
     18 S1         -2.0893    1.7573    3.8305 S.3       1 <0>        -0.0800
     19 Cl1         1.8872   -4.1546    0.8645 Cl        1 <0>        -0.1770
     20 H1          3.6799    0.3892    0.4525 H         1 <0>         0.1500
     21 H2          1.7788    1.3970    1.6352 H         1 <0>         0.1500
     22 H3         -0.0071   -2.4866    2.1232 H         1 <0>         0.1500
     23 H4         -3.3271    4.7883    3.7332 H         1 <0>         0.0000
     24 H5         -3.1429    3.9734    5.3059 H         1 <0>         0.0000
     25 H6         -2.0379    5.2732    4.8622 H         1 <0>         0.0000
     26 H7         -1.0244   -0.5765    2.9357 H         1 <0>         0.4000
     27 H8          1.7825    5.6695    2.1959 H         1 <0>         0.5000
@<TRIPOS>BOND
     1    1    5 1
     2    1   13 3
     3    2    3 ar
     4    2    5 ar
     5    3    6 ar
     6    4    6 ar
     7    4    7 ar
     8    5    7 ar
     9    6   15 1
    10    7   19 1
    11    8    9 2
    12    8   11 1
    13    8   14 1
    14    9   12 1
    15    9   18 1
    16   10   14 2
    17   10   15 1
    18   10   18 1
    19   11   16 2
    20   11   17 1
    21    2   20 1
    22    3   21 1
    23    4   22 1
    24   12   23 1
    25   12   24 1
    26   12   25 1
    27   15   26 1
    28   17   27 1
