@<TRIPOS>MOLECULE
*****
   17    18     0     0     0
SMALL
USER_CHARGES

@<TRIPOS>ATOM
      1 C1          0.2175   -0.4688   -0.9561 C.ar      1 <0>        -0.1500
      2 C2         -0.6742   -1.4085   -1.4795 C.ar      1 <0>        -0.1500
      3 C3          1.6756   -0.7186   -2.8730 C.ar      1 <0>        -0.1500
      4 C4          0.7916   -1.6713   -3.4245 C.ar      1 <0>         0.2272
      5 C5          1.3776   -0.1269   -1.6421 C.ar      1 <0>        -0.1710
      6 C6         -0.3685   -1.9990   -2.7163 C.ar      1 <0>         0.0400
      7 C7         -0.0585   -3.1484   -4.8253 C.2       1 <0>         0.1981
      8 C8         -0.2152   -4.0188   -6.0110 C.3       1 <0>         0.1800
      9 N1          0.9552   -2.3379   -4.6301 N.2       1 <0>        -0.5653
     10 O1          2.1817    0.7375   -1.1431 O.3       1 <0>        -0.8290
     11 S1         -1.2595   -3.1758   -3.6075 S.3       1 <0>        -0.0800
     12 H1         -0.0254   -0.0146    0.0043 H         1 <0>         0.1500
     13 H2         -1.5784   -1.6706   -0.9386 H         1 <0>         0.1500
     14 H3          2.5793   -0.4617   -3.4230 H         1 <0>         0.1500
     15 H4          0.2507   -5.0022   -5.8425 H         1 <0>         0.0000
     16 H5         -1.2758   -4.1857   -6.2606 H         1 <0>         0.0000
     17 H6          0.2458   -3.5760   -6.9091 H         1 <0>         0.0000
@<TRIPOS>BOND
     1    1    2 ar
     2    1    5 ar
     3    2    6 ar
     4    3    4 ar
     5    3    5 ar
     6    4    6 ar
     7    4    9 1
     8    5   10 1
     9    6   11 1
    10    7    8 1
    11    7    9 2
    12    7   11 1
    13    1   12 1
    14    2   13 1
    15    3   14 1
    16    8   15 1
    17    8   16 1
    18    8   17 1
