@<TRIPOS>MOLECULE
*****
   30    31     0     0     0
SMALL
USER_CHARGES

@<TRIPOS>ATOM
      1 C1          2.0155    0.1670    0.6665 C.ar      1 <0>        -0.1500
      2 C2          0.8008   -0.5058    0.5349 C.ar      1 <0>        -0.1500
      3 C3          7.2006   -5.3669    3.8384 C.2       1 <0>        -0.1500
      4 C4          6.0346   -5.0946    3.0660 C.2       1 <0>        -0.1500
      5 C5          1.6635   -2.3248    1.8706 C.ar      1 <0>        -0.1500
      6 C6          3.0543   -0.4061    1.4001 C.ar      1 <0>        -0.1435
      7 C7          2.8783   -1.6520    2.0022 C.ar      1 <0>         0.3640
      8 C8          0.6248   -1.7517    1.1369 C.ar      1 <0>         0.1770
      9 C9          7.9525   -4.2337    4.0575 C.2       1 <0>        -0.1920
     10 C10         5.9397   -3.7633    2.7244 C.2       1 <0>        -0.1400
     11 C11         9.2596   -4.2083    4.8559 C.2       1 <0>         1.0320
     12 C12         4.3456    0.3344    1.5251 C.3       1 <0>         0.1435
     13 C13         4.8691   -3.0783    1.9272 C.3       1 <0>         0.6830
     14 N1          3.9442   -2.2637    2.7687 N.4       1 <0>        -0.7670
     15 O1          9.8275   -3.0887    4.9644 O.co2     1 <0>        -0.9000
     16 O2          9.6471   -5.3094    5.3305 O.co2     1 <0>        -0.9000
     17 S1          7.2527   -2.8485    3.3337 S.3       1 <0>        -0.0800
     18 Cl1        -0.8751   -2.5801    0.9756 Cl        1 <0>        -0.1770
     19 H1          2.1434    1.1364    0.1918 H         1 <0>         0.1500
     20 H2          0.0010   -0.0492   -0.0425 H         1 <0>         0.1500
     21 H3          7.4685   -6.3471    4.2122 H         1 <0>         0.1500
     22 H4          5.3039   -5.8397    2.7784 H         1 <0>         0.1500
     23 H5          1.5297   -3.2966    2.3409 H         1 <0>         0.1500
     24 H6          4.3270    0.9836    2.4080 H         1 <0>         0.0000
     25 H7          5.1917   -0.3575    1.6174 H         1 <0>         0.0000
     26 H8          4.5344    0.9535    0.6394 H         1 <0>         0.0000
     27 H9          5.3017   -2.3977    1.1860 H         1 <0>         0.0000
     28 H10         4.2490   -3.8049    1.3912 H         1 <0>         0.0000
     29 H11         3.5374   -2.8564    3.5131 H         1 <0>         0.4500
     30 H12         4.4795   -1.5288    3.2625 H         1 <0>         0.4500
@<TRIPOS>BOND
     1    1    2 ar
     2    1    6 ar
     3    2    8 ar
     4    3    4 1
     5    3    9 2
     6    4   10 2
     7    5    7 ar
     8    5    8 ar
     9    6    7 ar
    10    6   12 1
    11    7   14 1
    12    8   18 1
    13    9   11 1
    14    9   17 1
    15   10   13 1
    16   10   17 1
    17   11   15 1
    18   11   16 2
    19   13   14 1
    20    1   19 1
    21    2   20 1
    22    3   21 1
    23    4   22 1
    24    5   23 1
    25   12   24 1
    26   12   25 1
    27   12   26 1
    28   13   27 1
    29   13   28 1
    30   14   29 1
    31   14   30 1
