@<TRIPOS>MOLECULE
*****
   29    30     0     0     0
SMALL
USER_CHARGES

@<TRIPOS>ATOM
      1 C1          1.2327    2.5811    7.1849 C.ar      1 <0>        -0.1500
      2 C2          1.5201    3.9451    7.1363 C.ar      1 <0>        -0.1500
      3 C3          0.5471    1.9749    6.1322 C.ar      1 <0>        -0.1500
      4 C4          0.4363    4.0968    4.9823 C.ar      1 <0>        -0.1500
      5 C5          1.1219    4.7030    6.0350 C.ar      1 <0>        -0.1435
      6 C6          0.1489    2.7327    5.0309 C.ar      1 <0>         0.1790
      7 C7          1.8370    0.6051    0.9363 C.2       1 <0>        -0.1500
      8 C8          0.4016    0.4973    0.8789 C.2       1 <0>        -0.1500
      9 C9          2.4539    1.1949    1.9664 C.2       1 <0>        -0.2882
     10 C10        -0.4026    0.9739    1.8389 C.2       1 <0>        -0.2356
     11 C11         0.2010    1.6470    3.0227 C.2       1 <0>         0.3746
     12 C12        -1.8949    0.8000    1.6632 C.2       1 <0>         1.0500
     13 C13         1.7180    1.7821    3.1262 C.3       1 <0>         0.1992
     14 C14         1.4292    6.1615    5.9827 C.3       1 <0>         1.1635
     15 N1         -0.5410    2.1231    3.9724 N.2       1 <0>        -0.6290
     16 O1         -2.2890   -0.3972    1.5728 O.co2     1 <0>        -0.9000
     17 O2         -2.5604    1.8736    1.6290 O.co2     1 <0>        -0.9000
     18 F1          2.1036    6.6186    7.0792 F         1 <0>        -0.3400
     19 F2          2.2019    6.5195    4.9148 F         1 <0>        -0.3400
     20 F3          0.3059    6.9320    5.8965 F         1 <0>        -0.3400
     21 H1          1.5432    1.9910    8.0422 H         1 <0>         0.1500
     22 H2          2.0555    4.4091    7.9608 H         1 <0>         0.1500
     23 H3          0.3276    0.9114    6.1790 H         1 <0>         0.1500
     24 H4          0.1265    4.6877    4.1232 H         1 <0>         0.1500
     25 H5          2.4095    0.1913    0.1132 H         1 <0>         0.1500
     26 H6         -0.0039    0.0006    0.0019 H         1 <0>         0.1500
     27 H7          3.5382    1.2562    1.9721 H         1 <0>         0.1500
     28 H8          2.0405    1.2878    4.0495 H         1 <0>         0.0000
     29 H9          1.9597    2.8477    3.2096 H         1 <0>         0.0000
@<TRIPOS>BOND
     1    1    2 ar
     2    1    3 ar
     3    2    5 ar
     4    3    6 ar
     5    4    5 ar
     6    4    6 ar
     7    5   14 1
     8    6   15 1
     9    7    8 1
    10    7    9 2
    11    8   10 2
    12    9   13 1
    13   10   11 1
    14   10   12 1
    15   11   13 1
    16   11   15 2
    17   12   16 1
    18   12   17 2
    19   14   18 1
    20   14   19 1
    21   14   20 1
    22    1   21 1
    23    2   22 1
    24    3   23 1
    25    4   24 1
    26    7   25 1
    27    8   26 1
    28    9   27 1
    29   13   28 1
    30   13   29 1
