@<TRIPOS>MOLECULE
*****
   38    39     0     0     0
SMALL
USER_CHARGES

@<TRIPOS>ATOM
      1 C1          1.8851   -1.0363   -0.1124 C.ar      1 <0>        -0.1500
      2 C2          0.7638   -0.4841    1.9551 C.ar      1 <0>        -0.1500
      3 C3          0.8066   -0.4630    0.5610 C.ar      1 <0>        -0.1435
      4 C4         -0.9696   -0.7552   -1.2039 C.ar      1 <0>        -0.1435
      5 C5          2.8783   -1.6520    2.0022 C.ar      1 <0>        -0.1710
      6 C6          2.9210   -1.6309    0.6081 C.ar      1 <0>         0.0825
      7 C7          1.7997   -1.0786    2.6757 C.ar      1 <0>         0.0825
      8 C8         -1.8476   -1.7543   -0.8133 C.ar      1 <0>         0.0580
      9 C9         -0.7205   -0.6325   -2.5616 C.ar      1 <0>         0.4435
     10 C10        -2.1587   -2.4042   -2.9650 C.ar      1 <0>         0.4190
     11 C11         3.8306   -3.5498   -0.4624 C.3       1 <0>         0.2800
     12 C12         1.0599   -2.1853    4.6464 C.3       1 <0>         0.2800
     13 C13         0.3321    0.3839   -4.4364 C.3       1 <0>         0.2800
     14 C14        -0.3010    0.1726   -0.2094 C.3       1 <0>         0.2870
     15 N1         -2.4632   -2.6007   -1.6669 N.ar      1 <0>        -0.6200
     16 N2         -2.1633   -1.9646    0.4777 N.2       1 <0>        -0.8980
     17 N3         -2.7777   -3.2506   -3.8058 N.2       1 <0>        -0.8980
     18 N4         -1.3230   -1.4638   -3.4227 N.ar      1 <0>        -0.1790
     19 O1          3.8323   -2.1995    2.6658 O.3       1 <0>        -0.8290
     20 O2          3.9563   -2.1794   -0.0954 O.3       1 <0>        -0.3625
     21 O3          1.7138   -1.0750    4.0396 O.3       1 <0>        -0.3625
     22 O4          0.1340    0.3287   -3.0277 O.3       1 <0>        -0.3625
     23 H1          1.9196   -1.0204   -1.1992 H         1 <0>         0.1500
     24 H2         -0.0765   -0.0375    2.4812 H         1 <0>         0.1500
     25 H3          4.7192   -3.8624   -1.0164 H         1 <0>         0.0000
     26 H4          2.9382   -3.6823   -1.0793 H         1 <0>         0.0000
     27 H5          3.7378   -4.1534    0.4436 H         1 <0>         0.0000
     28 H6          1.0592   -2.0599    5.7320 H         1 <0>         0.0000
     29 H7          1.5796   -3.1078    4.3757 H         1 <0>         0.0000
     30 H8          0.0293   -2.2309    4.2866 H         1 <0>         0.0000
     31 H9          1.0314    1.1888   -4.6755 H         1 <0>         0.0000
     32 H10        -0.6254    0.5591   -4.9333 H         1 <0>         0.0000
     33 H11         0.7470   -0.5686   -4.7746 H         1 <0>         0.0000
     34 H12        -1.0683    0.5738    0.4759 H         1 <0>         0.0000
     35 H13         0.0636    1.0667   -0.7452 H         1 <0>         0.0000
     36 H14        -1.6491   -1.2800    1.0450 H         1 <0>         0.1500
     37 H15        -3.5274   -2.7343   -4.2823 H         1 <0>         0.1500
     38 H16        -1.1455   -1.3799   -4.4219 H         1 <0>         0.4570
@<TRIPOS>BOND
     1    1    3 ar
     2    1    6 ar
     3    2    3 ar
     4    2    7 ar
     5    3   14 1
     6    4    8 ar
     7    4    9 ar
     8    4   14 1
     9    5    6 ar
    10    5    7 ar
    11    5   19 1
    12    6   20 1
    13    7   21 1
    14    8   15 ar
    15    8   16 1
    16    9   18 ar
    17    9   22 1
    18   10   15 ar
    19   10   17 1
    20   10   18 ar
    21   11   20 1
    22   12   21 1
    23   13   22 1
    24    1   23 1
    25    2   24 1
    26   11   25 1
    27   11   26 1
    28   11   27 1
    29   12   28 1
    30   12   29 1
    31   12   30 1
    32   13   31 1
    33   13   32 1
    34   13   33 1
    35   14   34 1
    36   14   35 1
    37   16   36 1
    38   17   37 1
    39   18   38 1
