@<TRIPOS>MOLECULE
*****
   38    39     0     0     0
SMALL
USER_CHARGES

@<TRIPOS>ATOM
      1 C1          2.5143   -3.2547   -1.8674 C.ar      1 <0>        -0.1500
      2 C2          2.3507   -3.1339    0.5400 C.ar      1 <0>        -0.1500
      3 C3          1.7769   -2.9630   -0.7199 C.ar      1 <0>        -0.1435
      4 C4          4.3992   -3.8881   -0.4953 C.ar      1 <0>        -0.1710
      5 C5          3.8254   -3.7173   -1.7551 C.ar      1 <0>         0.0825
      6 C6          3.6619   -3.5964    0.6523 C.ar      1 <0>         0.0825
      7 C7         -0.6477   -3.5246   -0.5378 C.2       1 <0>        -0.1238
      8 C8         -1.3765   -3.6192    0.5892 C.2       1 <0>         0.2477
      9 C9         -0.8933   -4.5880   -1.5549 C.2       1 <0>         0.2156
     10 C10        -2.4300   -5.5145   -0.1546 C.2       1 <0>         0.2800
     11 C11         4.4046   -5.3149   -3.4188 C.3       1 <0>         0.2800
     12 C12         4.0005   -5.0163    2.5298 C.3       1 <0>         0.2800
     13 C13        -2.0684   -2.9433    2.6968 C.3       1 <0>         0.2800
     14 C14         0.3629   -2.4641   -0.8410 C.3       1 <0>         0.2817
     15 N1         -1.7824   -5.5469   -1.3173 N.2       1 <0>        -0.5600
     16 N2         -2.2813   -4.6281    0.7879 N.2       1 <0>        -0.6210
     17 N3         -0.2585   -4.6107   -2.6829 N.2       1 <0>        -0.8500
     18 N4         -3.3121   -6.5558   -0.0350 N.pl3     1 <0>        -0.8500
     19 O1          5.6068   -4.3142   -0.3919 O.3       1 <0>        -0.8290
     20 O2          4.5080   -3.9897   -2.9073 O.3       1 <0>        -0.3625
     21 O3          4.1809   -3.7480    1.9074 O.3       1 <0>        -0.3625
     22 O4         -1.2290   -2.6876    1.5974 O.3       1 <0>        -0.3567
     23 H1          2.0681   -3.1218   -2.8502 H         1 <0>         0.1500
     24 H2          1.7769   -2.9068    1.4353 H         1 <0>         0.1500
     25 H3          4.9927   -5.3992   -4.3360 H         1 <0>         0.0000
     26 H4          3.3563   -5.5469   -3.6229 H         1 <0>         0.0000
     27 H5          4.7923   -6.0145   -2.6745 H         1 <0>         0.0000
     28 H6          4.4589   -5.0047    3.5217 H         1 <0>         0.0000
     29 H7          4.4590   -5.7940    1.9139 H         1 <0>         0.0000
     30 H8          2.9307   -5.2152    2.6277 H         1 <0>         0.0000
     31 H9         -1.9112   -2.1789    3.4617 H         1 <0>         0.0000
     32 H10        -1.8457   -3.9327    3.1041 H         1 <0>         0.0000
     33 H11        -3.1087   -2.9141    2.3641 H         1 <0>         0.0000
     34 H12         0.2116   -1.6184   -0.1616 H         1 <0>         0.0000
     35 H13         0.1827   -2.0779   -1.8495 H         1 <0>         0.0000
     36 H14        -0.5757   -5.4170   -3.2277 H         1 <0>         0.4000
     37 H15        -3.3824   -7.2029   -0.7863 H         1 <0>         0.4000
     38 H16        -3.8491   -6.6258    0.7986 H         1 <0>         0.4000
@<TRIPOS>BOND
     1    1    3 ar
     2    1    5 ar
     3    2    3 ar
     4    2    6 ar
     5    3   14 1
     6    4    5 ar
     7    4    6 ar
     8    4   19 1
     9    5   20 1
    10    6   21 1
    11    7    8 2
    12    7    9 1
    13    7   14 1
    14    8   16 1
    15    8   22 1
    16    9   15 1
    17    9   17 2
    18   10   15 1
    19   10   16 2
    20   10   18 1
    21   11   20 1
    22   12   21 1
    23   13   22 1
    24    1   23 1
    25    2   24 1
    26   11   25 1
    27   11   26 1
    28   11   27 1
    29   12   28 1
    30   12   29 1
    31   12   30 1
    32   13   31 1
    33   13   32 1
    34   13   33 1
    35   14   34 1
    36   14   35 1
    37   17   36 1
    38   18   37 1
    39   18   38 1
