@<TRIPOS>MOLECULE
*****
   38    39     0     0     0
SMALL
USER_CHARGES

@<TRIPOS>ATOM
      1 C1          1.2757   -3.6621    0.7950 C.ar      1 <0>        -0.1500
      2 C2          0.4264   -3.2869    3.0255 C.ar      1 <0>        -0.1500
      3 C3          0.3283   -3.0950    1.6474 C.ar      1 <0>        -0.1435
      4 C4          2.4193   -4.6131    2.6989 C.ar      1 <0>        -0.1710
      5 C5          2.3212   -4.4212    1.3208 C.ar      1 <0>         0.0825
      6 C6          1.4720   -4.0460    3.5513 C.ar      1 <0>         0.0825
      7 C7         -1.6312   -3.0382    0.1032 C.2       1 <0>        -0.1238
      8 C8         -1.6321   -2.9194   -1.2348 C.2       1 <0>        -0.1233
      9 C9         -2.6049   -4.0768    0.5686 C.2       1 <0>         0.4856
     10 C10        -3.1979   -4.4829   -1.6501 C.2       1 <0>         0.4410
     11 C11         2.9379   -6.2564   -0.0603 C.3       1 <0>         0.2800
     12 C12         0.8395   -5.3291    5.4511 C.3       1 <0>         0.2800
     13 C13        -1.3774   -0.7322   -1.9618 C.3       1 <0>         0.2800
     14 C14        -0.8005   -2.2756    1.0797 C.3       1 <0>         0.2817
     15 N1         -2.3587   -3.5800   -2.1589 N.2       1 <0>        -0.5800
     16 N2         -3.3284   -4.7389   -0.3016 N.2       1 <0>        -0.6610
     17 N3         -3.9373   -5.1636   -2.4642 N.2       1 <0>        -0.8500
     18 N4         -2.7485   -4.3445    1.9111 N.pl3     1 <0>        -0.8500
     19 O1          3.3822   -5.3122    3.1832 O.3       1 <0>        -0.8290
     20 O2          3.2249   -4.9567    0.4466 O.3       1 <0>        -0.3625
     21 O3          1.5265   -4.2062    4.9074 O.3       1 <0>        -0.3625
     22 O4         -0.7796   -1.9949   -1.8178 O.3       1 <0>        -0.3567
     23 H1          1.2003   -3.5133   -0.2795 H         1 <0>         0.1500
     24 H2         -0.3115   -2.8453    3.6910 H         1 <0>         0.1500
     25 H3          3.7330   -6.5657   -0.7431 H         1 <0>         0.0000
     26 H4          1.9788   -6.2406   -0.5841 H         1 <0>         0.0000
     27 H5          2.8835   -6.9594    0.7742 H         1 <0>         0.0000
     28 H6          0.9612   -5.3408    6.5370 H         1 <0>         0.0000
     29 H7          1.2425   -6.2483    5.0187 H         1 <0>         0.0000
     30 H8         -0.2223   -5.2488    5.2066 H         1 <0>         0.0000
     31 H9         -0.6671   -0.0425   -2.4242 H         1 <0>         0.0000
     32 H10        -1.6797   -0.3572   -0.9807 H         1 <0>         0.0000
     33 H11        -2.2586   -0.8268   -2.6008 H         1 <0>         0.0000
     34 H12        -1.4376   -1.9163    1.8969 H         1 <0>         0.0000
     35 H13        -0.4043   -1.3772    0.5920 H         1 <0>         0.0000
     36 H14        -4.5216   -5.8089   -1.9253 H         1 <0>         0.4000
     37 H15        -2.1911   -3.8314    2.5498 H         1 <0>         0.4000
     38 H16        -3.4029   -5.0385    2.1796 H         1 <0>         0.4000
@<TRIPOS>BOND
     1    1    3 ar
     2    1    5 ar
     3    2    3 ar
     4    2    6 ar
     5    3   14 1
     6    4    5 ar
     7    4    6 ar
     8    4   19 1
     9    5   20 1
    10    6   21 1
    11    7    8 2
    12    7    9 1
    13    7   14 1
    14    8   15 1
    15    8   22 1
    16    9   16 2
    17    9   18 1
    18   10   15 1
    19   10   16 1
    20   10   17 2
    21   11   20 1
    22   12   21 1
    23   13   22 1
    24    1   23 1
    25    2   24 1
    26   11   25 1
    27   11   26 1
    28   11   27 1
    29   12   28 1
    30   12   29 1
    31   12   30 1
    32   13   31 1
    33   13   32 1
    34   13   33 1
    35   14   34 1
    36   14   35 1
    37   17   36 1
    38   18   37 1
    39   18   38 1
