@<TRIPOS>MOLECULE
*****
   42    43     0     0     0
SMALL
USER_CHARGES

@<TRIPOS>ATOM
      1 C1         -0.2572    4.4405   -0.8040 C.ar      1 <0>        -0.1500
      2 C2         -1.8392    3.1999   -2.1436 C.ar      1 <0>        -0.1500
      3 C3         -0.5875    3.3004   -1.5365 C.ar      1 <0>        -0.1435
      4 C4         -1.1787    5.4801   -0.6784 C.ar      1 <0>        -0.1435
      5 C5         -2.7608    4.2395   -2.0182 C.ar      1 <0>        -0.1435
      6 C6         -2.4305    5.3796   -1.2856 C.ar      1 <0>        -0.1710
      7 C7         -0.6839   -0.0288   -1.1308 C.2       1 <0>         0.0210
      8 C8          0.0927    1.0194   -0.7873 C.2       1 <0>        -0.1238
      9 C9          0.6583    0.9644    0.6070 C.2       1 <0>         0.4856
     10 C10        -0.5098   -1.1557    0.8492 C.2       1 <0>         0.5500
     11 C11        -0.7651    6.6790    0.1210 C.3       1 <0>         0.1435
     12 C12        -4.1705    2.7042   -3.4329 C.3       1 <0>         0.0000
     13 C13        -4.3262    5.1972   -3.7442 C.3       1 <0>         0.0000
     14 C14        -5.3267    4.1139   -1.7425 C.3       1 <0>         0.0000
     15 C15         0.4075    2.1779   -1.6720 C.3       1 <0>         0.2817
     16 C16        -4.0888    4.0724   -2.6934 C.3       1 <0>         0.1435
     17 N1         -1.0138   -1.1291   -0.3610 N.2       1 <0>        -0.6210
     18 N2          1.4200    1.9173    1.0523 N.2       1 <0>        -0.8500
     19 N3          0.3035   -0.1520    1.3402 N.pl3     1 <0>        -0.5000
     20 N4         -0.7413   -2.1736    1.7369 N.pl3     1 <0>        -0.8500
     21 O1         -3.2791    6.3370   -1.1701 O.3       1 <0>        -0.8290
     22 H1          0.7196    4.5167   -0.3317 H         1 <0>         0.1500
     23 H2         -2.0944    2.3099   -2.7144 H         1 <0>         0.1500
     24 H3         -1.1235   -0.0501   -2.1244 H         1 <0>         0.1500
     25 H4         -0.2846    7.4154   -0.5304 H         1 <0>         0.0000
     26 H5         -1.6307    7.1444    0.6037 H         1 <0>         0.0000
     27 H6         -0.0646    6.3970    0.9141 H         1 <0>         0.0000
     28 H7         -5.1332    2.5567   -3.9360 H         1 <0>         0.0000
     29 H8         -3.3922    2.6122   -4.1984 H         1 <0>         0.0000
     30 H9         -4.0342    1.8786   -2.7244 H         1 <0>         0.0000
     31 H10        -5.2945    5.0846   -4.2439 H         1 <0>         0.0000
     32 H11        -4.3111    6.1982   -3.2972 H         1 <0>         0.0000
     33 H12        -3.5507    5.1660   -4.5186 H         1 <0>         0.0000
     34 H13        -6.2730    3.9875   -2.2823 H         1 <0>         0.0000
     35 H14        -5.2739    3.3141   -0.9945 H         1 <0>         0.0000
     36 H15        -5.3833    5.0727   -1.2140 H         1 <0>         0.0000
     37 H16         0.4379    1.8415   -2.7155 H         1 <0>         0.0000
     38 H17         1.4167    2.5414   -1.4455 H         1 <0>         0.0000
     39 H18         1.6985    1.6956    2.0103 H         1 <0>         0.4000
     40 H19         0.6584   -0.2384    2.2883 H         1 <0>         0.4000
     41 H20        -1.3198   -2.9283    1.4479 H         1 <0>         0.4000
     42 H21        -0.3220   -2.1191    2.6363 H         1 <0>         0.4000
@<TRIPOS>BOND
     1    1    3 ar
     2    1    4 ar
     3    2    3 ar
     4    2    5 ar
     5    3   15 1
     6    4    6 ar
     7    4   11 1
     8    5    6 ar
     9    5   16 1
    10    6   21 1
    11    7    8 2
    12    7   17 1
    13    8    9 1
    14    8   15 1
    15    9   18 2
    16    9   19 1
    17   10   17 2
    18   10   19 1
    19   10   20 1
    20   12   16 1
    21   13   16 1
    22   14   16 1
    23    1   22 1
    24    2   23 1
    25    7   24 1
    26   11   25 1
    27   11   26 1
    28   11   27 1
    29   12   28 1
    30   12   29 1
    31   12   30 1
    32   13   31 1
    33   13   32 1
    34   13   33 1
    35   14   34 1
    36   14   35 1
    37   14   36 1
    38   15   37 1
    39   15   38 1
    40   18   39 1
    41   19   40 1
    42   20   41 1
    43   20   42 1
