@<TRIPOS>MOLECULE
*****
   38    40     0     0     0
SMALL
USER_CHARGES

@<TRIPOS>ATOM
      1 C1          0.8460    1.5706   -4.1205 C.ar      1 <0>        -0.1500
      2 C2          2.0807    2.2097   -3.9856 C.ar      1 <0>        -0.1500
      3 C3          1.5420    2.9203   -1.7098 C.ar      1 <0>        -0.1500
      4 C4         -0.0118    1.6216   -3.0447 C.ar      1 <0>         0.1000
      5 C5          0.3245    2.2876   -1.8488 C.ar      1 <0>         0.1000
      6 C6          2.4248    2.8769   -2.7939 C.ar      1 <0>         0.1110
      7 C7         -1.7730    1.4010   -1.6070 C.2       1 <0>         0.5500
      8 C8          0.4134    0.5392    0.8605 C.3       1 <0>         0.0000
      9 C9         -0.0522    2.1725    2.7119 C.3       1 <0>         0.0000
     10 C10         0.8392   -0.4518    1.9392 C.3       1 <0>         0.2800
     11 C11         0.4012    1.0883    3.6848 C.3       1 <0>         0.2800
     12 C12        -0.5899    1.5871    1.3885 C.3       1 <0>         0.0000
     13 C13        -0.7430    2.7160    0.3537 C.3       1 <0>         0.3691
     14 C14        -1.9754    0.9482    1.6039 C.3       1 <0>         0.2800
     15 N1         -2.9307    1.0493   -1.1453 N.2       1 <0>        -0.8500
     16 N2         -1.2918    1.0857   -2.8860 N.pl3     1 <0>        -0.5500
     17 N3         -0.7585    2.1581   -0.9523 N.pl3     1 <0>        -0.5191
     18 O1          1.3648    0.2317    3.0752 O.3       1 <0>        -0.5600
     19 O2         -2.9320    1.9849    1.6390 O.3       1 <0>        -0.6800
     20 Br1         4.1096    3.7293   -2.6591 Br        1 <0>        -0.1110
     21 H1          0.5815    1.0580   -5.0381 H         1 <0>         0.1500
     22 H2          2.7761    2.1844   -4.8219 H         1 <0>         0.1500
     23 H3          1.8040    3.4339   -0.7906 H         1 <0>         0.1500
     24 H4          1.3136    1.0609    0.5087 H         1 <0>         0.0000
     25 H5         -0.0003   -0.0000    0.0002 H         1 <0>         0.0000
     26 H6         -0.8023    2.8135    3.1899 H         1 <0>         0.0000
     27 H7          0.8157    2.8074    2.4879 H         1 <0>         0.0000
     28 H8          0.0133   -1.1007    2.2503 H         1 <0>         0.0000
     29 H9          1.6303   -1.1007    1.5494 H         1 <0>         0.0000
     30 H10         0.8760    1.5522    4.5555 H         1 <0>         0.0000
     31 H11        -0.4391    0.4912    4.0552 H         1 <0>         0.0000
     32 H12        -1.6796    3.2170    0.5763 H         1 <0>         0.0000
     33 H13         0.1073    3.3772    0.4866 H         1 <0>         0.0000
     34 H14        -1.9774    0.4103    2.5460 H         1 <0>         0.0000
     35 H15        -2.1893    0.2744    0.7811 H         1 <0>         0.0000
     36 H16        -3.0313    1.4066   -0.1917 H         1 <0>         0.4000
     37 H17        -1.7759    0.5553   -3.5941 H         1 <0>         0.4000
     38 H18        -3.8032    1.5716    1.7753 H         1 <0>         0.4000
@<TRIPOS>BOND
     1    1    2 ar
     2    1    4 ar
     3    2    6 ar
     4    3    5 ar
     5    3    6 ar
     6    4    5 ar
     7    4   16 1
     8    5   17 1
     9    6   20 1
    10    7   15 2
    11    7   16 1
    12    7   17 1
    13    8   10 1
    14    8   12 1
    15    9   11 1
    16    9   12 1
    17   10   18 1
    18   11   18 1
    19   12   13 1
    20   12   14 1
    21   13   17 1
    22   14   19 1
    23    1   21 1
    24    2   22 1
    25    3   23 1
    26    8   24 1
    27    8   25 1
    28    9   26 1
    29    9   27 1
    30   10   28 1
    31   10   29 1
    32   11   30 1
    33   11   31 1
    34   13   32 1
    35   13   33 1
    36   14   34 1
    37   14   35 1
    38   15   36 1
    39   16   37 1
    40   19   38 1
