@<TRIPOS>MOLECULE
*****
   35    37     0     0     0
SMALL
USER_CHARGES

@<TRIPOS>ATOM
      1 C1          2.1011   -3.2176   -3.2858 C.ar      1 <0>        -0.1500
      2 C2          0.8107   -3.7537   -3.1911 C.ar      1 <0>        -0.1500
      3 C3         -0.1218   -1.5832   -2.5957 C.ar      1 <0>        -0.1500
      4 C4          2.2779   -1.8470   -3.0317 C.ar      1 <0>         0.2272
      5 C5          1.1721   -1.0710   -2.6960 C.ar      1 <0>        -0.1516
      6 C6         -0.2797   -2.9492   -2.8520 C.ar      1 <0>         0.1110
      7 C7          3.0289    0.1310   -2.7436 C.2       1 <0>         0.2705
      8 C8          1.1524    0.4705    0.1995 C.3       1 <0>         0.0000
      9 C9         -0.0155    2.6622   -0.1843 C.3       1 <0>         0.0000
     10 C10         1.1770    0.8268    1.6837 C.3       1 <0>         0.2800
     11 C11         0.0788    2.8930    1.3215 C.3       1 <0>         0.2800
     12 C12         1.1027    1.7311   -0.6743 C.3       1 <0>         0.2800
     13 C13         0.9132    1.3670   -2.1464 C.3       1 <0>         0.2556
     14 N1          3.4223   -1.0833   -3.0562 N.2       1 <0>        -0.5653
     15 N2          1.6818    0.1895   -2.5173 N.pl3     1 <0>         0.0476
     16 N3          3.7738    1.2563   -2.6315 N.pl3     1 <0>        -0.8840
     17 O1          0.0637    1.6515    2.0245 O.3       1 <0>        -0.5600
     18 O2          2.3584    2.4046   -0.5473 O.3       1 <0>        -0.6800
     19 Br1        -2.0059   -3.7187   -2.7379 Br        1 <0>        -0.1110
     20 H1          2.9424   -3.8501   -3.5495 H         1 <0>         0.1500
     21 H2          0.6747   -4.8150   -3.3882 H         1 <0>         0.1500
     22 H3         -0.9597   -0.9478   -2.3287 H         1 <0>         0.1500
     23 H4          2.0378   -0.1311   -0.0370 H         1 <0>         0.0000
     24 H5          0.2633   -0.1415    0.0014 H         1 <0>         0.0000
     25 H6         -0.9881    2.2064   -0.4089 H         1 <0>         0.0000
     26 H7          0.0305    3.6305   -0.6962 H         1 <0>         0.0000
     27 H8          1.1110   -0.0863    2.2839 H         1 <0>         0.0000
     28 H9          2.1076    1.3355    1.9619 H         1 <0>         0.0000
     29 H10         0.9820    3.4540    1.5886 H         1 <0>         0.0000
     30 H11        -0.7824    3.4777    1.6605 H         1 <0>         0.0000
     31 H12         1.2267    2.1975   -2.7836 H         1 <0>         0.0000
     32 H13        -0.1413    1.1688   -2.3531 H         1 <0>         0.0000
     33 H14         4.7957    1.2462   -2.7479 H         1 <0>         0.4000
     34 H15         3.3651    2.1517   -2.3327 H         1 <0>         0.4000
     35 H16         2.3005    3.1931   -1.1063 H         1 <0>         0.4000
@<TRIPOS>BOND
     1    1    2 ar
     2    1    4 ar
     3    2    6 ar
     4    3    5 ar
     5    3    6 ar
     6    4    5 ar
     7    4   14 1
     8    5   15 1
     9    6   19 1
    10    7   14 2
    11    7   15 1
    12    7   16 1
    13    8   10 1
    14    8   12 1
    15    9   11 1
    16    9   12 1
    17   10   17 1
    18   11   17 1
    19   12   13 1
    20   12   18 1
    21   13   15 1
    22    1   20 1
    23    2   21 1
    24    3   22 1
    25    8   23 1
    26    8   24 1
    27    9   25 1
    28    9   26 1
    29   10   27 1
    30   10   28 1
    31   11   29 1
    32   11   30 1
    33   13   31 1
    34   13   32 1
    35   16   33 1
    36   16   34 1
    37   18   35 1
