@<TRIPOS>MOLECULE
*****
   38    39     0     0     0
SMALL
USER_CHARGES

@<TRIPOS>ATOM
      1 C1          2.4245   -2.8211   -2.9214 C.ar      1 <0>        -0.1500
      2 C2          2.3642   -2.7953   -0.5064 C.ar      1 <0>        -0.1500
      3 C3          1.7546   -2.5311   -1.7329 C.ar      1 <0>        -0.1435
      4 C4          4.3136   -3.6395   -1.6570 C.ar      1 <0>        -0.1710
      5 C5          3.7040   -3.3754   -2.8835 C.ar      1 <0>         0.0825
      6 C6          3.6437   -3.3495   -0.4684 C.ar      1 <0>         0.0825
      7 C7         -0.6941   -2.9355   -1.4726 C.2       1 <0>        -0.1238
      8 C8         -1.3944   -3.0358   -0.3086 C.2       1 <0>         0.2477
      9 C9         -1.0609   -3.9406   -2.5526 C.2       1 <0>         0.4856
     10 C10        -2.6607   -4.8248   -0.9850 C.2       1 <0>         0.2800
     11 C11         4.1060   -4.9338   -4.6344 C.3       1 <0>         0.2800
     12 C12         3.9568   -4.8699    1.3333 C.3       1 <0>         0.2800
     13 C13        -1.9142   -2.3677    1.8503 C.3       1 <0>         0.2800
     14 C14         0.3746   -1.9334   -1.7738 C.3       1 <0>         0.2817
     15 N1         -2.3831   -3.9782   -0.0393 N.2       1 <0>        -0.6210
     16 N2         -3.5874   -5.7532   -0.8101 N.2       1 <0>        -0.9300
     17 N3         -0.4618   -3.9220   -3.7052 N.2       1 <0>        -0.8500
     18 N4         -2.0478   -4.8418   -2.2107 N.pl3     1 <0>        -0.5000
     19 O1          5.4920   -4.1500   -1.6221 O.3       1 <0>        -0.8290
     20 O2          4.3205   -3.6423   -4.0736 O.3       1 <0>        -0.3625
     21 O3          4.1998   -3.5905    0.7564 O.3       1 <0>        -0.3625
     22 O4         -1.1170   -2.1446    0.7154 O.3       1 <0>        -0.3567
     23 H1          1.9504   -2.6156   -3.8783 H         1 <0>         0.1500
     24 H2          1.8429   -2.5696    0.4209 H         1 <0>         0.1500
     25 H3          4.6505   -5.0171   -5.5781 H         1 <0>         0.0000
     26 H4          3.0370   -5.0856   -4.8035 H         1 <0>         0.0000
     27 H5          4.4734   -5.6899   -3.9364 H         1 <0>         0.0000
     28 H6          4.4534   -4.9327    2.3046 H         1 <0>         0.0000
     29 H7          4.3361   -5.6489    0.6672 H         1 <0>         0.0000
     30 H8          2.8804   -5.0005    1.4678 H         1 <0>         0.0000
     31 H9         -1.6572   -1.6416    2.6255 H         1 <0>         0.0000
     32 H10        -1.7494   -3.3835    2.2185 H         1 <0>         0.0000
     33 H11        -2.9649   -2.2477    1.5759 H         1 <0>         0.0000
     34 H12         0.3090   -1.1100   -1.0544 H         1 <0>         0.0000
     35 H13         0.1824   -1.4916   -2.7571 H         1 <0>         0.0000
     36 H14        -4.2913   -5.6569   -1.5467 H         1 <0>         0.1500
     37 H15        -0.8458   -4.6690   -4.2873 H         1 <0>         0.4000
     38 H16        -2.3319   -5.5403   -2.8912 H         1 <0>         0.4000
@<TRIPOS>BOND
     1    1    3 ar
     2    1    5 ar
     3    2    3 ar
     4    2    6 ar
     5    3   14 1
     6    4    5 ar
     7    4    6 ar
     8    4   19 1
     9    5   20 1
    10    6   21 1
    11    7    8 2
    12    7    9 1
    13    7   14 1
    14    8   15 1
    15    8   22 1
    16    9   17 2
    17    9   18 1
    18   10   15 2
    19   10   16 1
    20   10   18 1
    21   11   20 1
    22   12   21 1
    23   13   22 1
    24    1   23 1
    25    2   24 1
    26   11   25 1
    27   11   26 1
    28   11   27 1
    29   12   28 1
    30   12   29 1
    31   12   30 1
    32   13   31 1
    33   13   32 1
    34   13   33 1
    35   14   34 1
    36   14   35 1
    37   16   36 1
    38   17   37 1
    39   18   38 1
