@<TRIPOS>MOLECULE
*****
   26    28     0     0     0
SMALL
USER_CHARGES

@<TRIPOS>ATOM
      1 C1          0.4559   -3.8175   -4.7431 C.ar      1 <0>        -0.1500
      2 C2         -0.7413   -3.1645   -4.4499 C.ar      1 <0>        -0.1500
      3 C3          1.5665   -3.6418   -3.9177 C.ar      1 <0>        -0.1500
      4 C4         -0.8278   -2.3357   -3.3313 C.ar      1 <0>        -0.1500
      5 C5          1.4801   -2.8130   -2.7992 C.ar      1 <0>        -0.1500
      6 C6          0.2829   -2.1599   -2.5059 C.ar      1 <0>         0.0284
      7 C7          0.1931   -1.2938   -1.3368 C.2       1 <0>         0.1426
      8 C8         -0.1859   -1.7865   -0.1337 C.2       1 <0>         0.0018
      9 C9          0.2519    0.8376   -0.5794 C.2       1 <0>         0.6000
     10 C10        -0.2459    1.6643    1.4230 C.2       1 <0>         0.6000
     11 C11        -0.3020   -0.8821    1.0687 C.3       1 <0>         0.1382
     12 C12        -0.6286    0.5115    0.5744 C.3       1 <0>         0.1220
     13 N1          0.6022    0.0182   -1.5160 N.2       1 <0>        -0.6210
     14 N2          0.7098    2.1284   -0.4732 N.2       1 <0>        -0.2110
     15 N3          0.4677    2.5812    0.6860 N.2       1 <0>        -0.2110
     16 N4         -0.5549    1.8205    2.6621 N.2       1 <0>        -0.8500
     17 Cl1        -0.6195   -3.4373    0.1397 Cl        1 <0>        -0.1400
     18 H1          0.5228   -4.4638   -5.6133 H         1 <0>         0.1500
     19 H2         -1.6066   -3.3021   -5.0918 H         1 <0>         0.1500
     20 H3          2.4984   -4.1511   -4.1453 H         1 <0>         0.1500
     21 H4         -1.7678   -1.8333   -3.1157 H         1 <0>         0.1500
     22 H5          2.3546   -2.6861   -2.1654 H         1 <0>         0.1500
     23 H6         -1.0971   -1.2140    1.7466 H         1 <0>         0.0000
     24 H7          0.6357   -0.9049    1.6375 H         1 <0>         0.0000
     25 H8         -1.6777    0.6077    0.2716 H         1 <0>         0.0000
     26 H9         -0.1618    2.7048    3.0031 H         1 <0>         0.4000
@<TRIPOS>BOND
     1    1    2 ar
     2    1    3 ar
     3    2    4 ar
     4    3    5 ar
     5    4    6 ar
     6    5    6 ar
     7    6    7 1
     8    7    8 2
     9    7   13 1
    10    8   11 1
    11    8   17 1
    12    9   12 1
    13    9   13 2
    14    9   14 1
    15   10   12 1
    16   10   15 1
    17   10   16 2
    18   11   12 1
    19   14   15 2
    20    1   18 1
    21    2   19 1
    22    3   20 1
    23    4   21 1
    24    5   22 1
    25   11   23 1
    26   11   24 1
    27   12   25 1
    28   16   26 1
