@<TRIPOS>MOLECULE
*****
   36    37     0     0     0
SMALL
USER_CHARGES

@<TRIPOS>ATOM
      1 C1          0.5646    1.0823    1.7803 C.ar      1 <0>        -0.1500
      2 C2         -0.2294    0.1717    1.0509 C.ar      1 <0>        -0.1500
      3 C3          0.2696    1.4227    3.1082 C.ar      1 <0>        -0.1090
      4 C4         -1.3572   -0.4428    1.6138 C.ar      1 <0>        -0.1090
      5 C5         -0.8508    0.8057    3.6522 C.ar      1 <0>         0.3090
      6 C6         -1.6367   -0.0955    2.9302 C.ar      1 <0>         0.3090
      7 C7         -2.5041    0.1117    4.9671 C.cat     1 <0>         0.6560
      8 C8         -2.8921   -2.2568    7.2027 C.2       1 <0>         0.7800
      9 C9         -1.5905   -4.7974    7.2312 C.3       1 <0>         0.0000
     10 C10        -1.4524   -4.4911    9.7204 C.3       1 <0>         0.0000
     11 C11        -3.6959   -4.6210    8.5989 C.3       1 <0>         0.0000
     12 C12        -3.3897   -0.0591    6.1427 C.3       1 <0>         0.4441
     13 C13        -2.2452   -4.1626    8.4572 C.3       1 <0>         0.2800
     14 N1         -1.4264    0.9002    4.9027 N.pl3     1 <0>        -0.7000
     15 N2         -2.6439   -0.4956    3.7841 N.pl3     1 <0>        -0.7000
     16 N3         -2.7973   -0.8813    7.1723 N.am      1 <0>        -0.7301
     17 O1         -3.4779   -2.9528    6.3799 O.2       1 <0>        -0.5700
     18 O2         -2.2302   -2.7397    8.2964 O.3       1 <0>        -0.4300
     19 H1          1.4304    1.5315    1.2983 H         1 <0>         0.1500
     20 H2          0.0422   -0.0597    0.0235 H         1 <0>         0.1500
     21 H3          0.8705    2.1193    3.6783 H         1 <0>         0.1500
     22 H4         -1.9739   -1.1429    1.0651 H         1 <0>         0.1500
     23 H5         -2.1566   -4.5639    6.3224 H         1 <0>         0.0000
     24 H6         -0.5608   -4.4499    7.0984 H         1 <0>         0.0000
     25 H7         -1.5788   -5.8901    7.3159 H         1 <0>         0.0000
     26 H8         -1.9185   -4.0376   10.6026 H         1 <0>         0.0000
     27 H9         -0.4377   -4.0808    9.6622 H         1 <0>         0.0000
     28 H10        -1.3807   -5.5714    9.8829 H         1 <0>         0.0000
     29 H11        -4.1657   -4.1657    9.4783 H         1 <0>         0.0000
     30 H12        -4.2892   -4.3605    7.7164 H         1 <0>         0.0000
     31 H13        -3.7492   -5.7057    8.7466 H         1 <0>         0.0000
     32 H14        -3.6392    0.9094    6.6069 H         1 <0>         0.0000
     33 H15        -4.3497   -0.5281    5.8715 H         1 <0>         0.0000
     34 H16        -1.0830    1.4826    5.6617 H         1 <0>         0.4500
     35 H17        -3.3818   -1.1538    3.5487 H         1 <0>         0.4500
     36 H18        -2.2818   -0.4203    7.9157 H         1 <0>         0.3700
@<TRIPOS>BOND
     1    1    2 ar
     2    1    3 ar
     3    2    4 ar
     4    3    5 ar
     5    4    6 ar
     6    5    6 ar
     7    5   14 1
     8    6   15 1
     9    7   12 1
    10    7   14 1
    11    7   15 2
    12    8   16 am
    13    8   17 2
    14    8   18 1
    15    9   13 1
    16   10   13 1
    17   11   13 1
    18   12   16 1
    19   13   18 1
    20    1   19 1
    21    2   20 1
    22    3   21 1
    23    4   22 1
    24    9   23 1
    25    9   24 1
    26    9   25 1
    27   10   26 1
    28   10   27 1
    29   10   28 1
    30   11   29 1
    31   11   30 1
    32   11   31 1
    33   12   32 1
    34   12   33 1
    35   14   34 1
    36   15   35 1
    37   16   36 1
