@<TRIPOS>MOLECULE
*****
   37    38     0     0     0
SMALL
USER_CHARGES

@<TRIPOS>ATOM
      1 C1         -1.1972   -2.3765    2.3154 C.ar      1 <0>        -0.1500
      2 C2         -2.9056   -1.1316    3.4851 C.ar      1 <0>        -0.1500
      3 C3         -2.1337   -1.3432    2.3427 C.ar      1 <0>        -0.1435
      4 C4         -1.8044   -2.9867    4.5728 C.ar      1 <0>        -0.1710
      5 C5         -1.0325   -3.1983    3.4304 C.ar      1 <0>         0.0825
      6 C6         -2.7410   -1.9534    4.6002 C.ar      1 <0>         0.0825
      7 C7         -3.5417   -0.7923    0.3575 C.2       1 <0>        -0.1238
      8 C8         -4.6826   -0.0854    0.3445 C.2       1 <0>         0.2477
      9 C9         -3.5240   -2.0207   -0.4953 C.2       1 <0>         0.2156
     10 C10        -5.6619   -1.5315   -1.1030 C.2       1 <0>         0.0100
     11 C11        -0.5507   -5.4586    2.8697 C.3       1 <0>         0.2800
     12 C12        -4.7723   -2.3825    5.7601 C.3       1 <0>         0.2800
     13 C13        -6.0513    1.6787    0.9709 C.3       1 <0>         0.2800
     14 C14        -2.3113   -0.4571    1.1404 C.3       1 <0>         0.2817
     15 N1         -4.6107   -2.3402   -1.1986 N.2       1 <0>        -0.5600
     16 N2         -5.7722   -0.4508   -0.3975 N.2       1 <0>        -0.6210
     17 N3         -6.6979   -1.9187   -1.8358 N.2       1 <0>        -0.9300
     18 N4         -2.4874   -2.7904   -0.5763 N.2       1 <0>        -0.8500
     19 O1         -1.6528   -3.7436    5.5997 O.3       1 <0>        -0.8290
     20 O2         -0.1029   -4.1973    3.3565 O.3       1 <0>        -0.3625
     21 O3         -3.5198   -1.7075    5.6960 O.3       1 <0>        -0.3625
     22 O4         -4.7927    1.0651    1.1016 O.3       1 <0>        -0.3567
     23 H1         -0.5948   -2.5424    1.4254 H         1 <0>         0.1500
     24 H2         -3.6361   -0.3264    3.5077 H         1 <0>         0.1500
     25 H3          0.2840   -6.1638    2.8608 H         1 <0>         0.0000
     26 H4         -0.9513   -5.3391    1.8599 H         1 <0>         0.0000
     27 H5         -1.3362   -5.8356    3.5289 H         1 <0>         0.0000
     28 H6         -5.2923   -2.1005    6.6789 H         1 <0>         0.0000
     29 H7         -4.6066   -3.4626    5.7394 H         1 <0>         0.0000
     30 H8         -5.3772   -2.0920    4.8979 H         1 <0>         0.0000
     31 H9         -6.0839    2.5800    1.5879 H         1 <0>         0.0000
     32 H10        -6.8320    0.9811    1.2844 H         1 <0>         0.0000
     33 H11        -6.2072    1.9505   -0.0758 H         1 <0>         0.0000
     34 H12        -2.3621    0.5896    1.4584 H         1 <0>         0.0000
     35 H13        -1.4395   -0.5316    0.4825 H         1 <0>         0.0000
     36 H14        -7.3491   -2.4275   -1.2340 H         1 <0>         0.1500
     37 H15        -2.6956   -3.5657   -1.2115 H         1 <0>         0.4000
@<TRIPOS>BOND
     1    1    3 ar
     2    1    5 ar
     3    2    3 ar
     4    2    6 ar
     5    3   14 1
     6    4    5 ar
     7    4    6 ar
     8    4   19 1
     9    5   20 1
    10    6   21 1
    11    7    8 2
    12    7    9 1
    13    7   14 1
    14    8   16 1
    15    8   22 1
    16    9   15 1
    17    9   18 2
    18   10   15 1
    19   10   16 2
    20   10   17 1
    21   11   20 1
    22   12   21 1
    23   13   22 1
    24    1   23 1
    25    2   24 1
    26   11   25 1
    27   11   26 1
    28   11   27 1
    29   12   28 1
    30   12   29 1
    31   12   30 1
    32   13   31 1
    33   13   32 1
    34   13   33 1
    35   14   34 1
    36   14   35 1
    37   17   36 1
    38   18   37 1
