@<TRIPOS>MOLECULE
*****
   25    26     0     0     0
SMALL
USER_CHARGES

@<TRIPOS>ATOM
      1 C1          2.3188   -0.0574    1.0165 C.ar      1 <0>        -0.1500
      2 C2          1.4429   -1.1370    1.4721 C.ar      1 <0>        -0.1500
      3 C3          1.8985    0.8667    0.1355 C.ar      1 <0>         0.1390
      4 C4         -0.0475    1.4935   -1.1585 C.2       1 <0>         0.3256
      5 C5          0.1652   -1.3132    1.0704 C.ar      1 <0>        -0.1238
      6 C6         -1.4035    0.9080   -1.2810 C.2       1 <0>         0.1854
      7 C7         -0.3842   -0.3399    0.0977 C.ar      1 <0>         0.7646
      8 C8         -2.3312    1.4413   -2.0763 C.2       1 <0>         0.1534
      9 C9         -3.0722    3.0632   -3.6240 C.3       1 <0>         0.2800
     10 C10        -0.7254   -2.4152    1.5364 C.3       1 <0>         1.1582
     11 N1         -1.5375   -0.2224   -0.4762 N.2       1 <0>        -0.6210
     12 N2          0.6045    0.7749   -0.3372 N.ar      1 <0>        -0.0180
     13 O1         -3.5965    0.8781   -2.1778 O.3       1 <0>        -0.5267
     14 O2         -2.0105    2.5781   -2.8095 O.3       1 <0>        -0.3567
     15 F1         -0.0889   -3.2189    2.4158 F         1 <0>        -0.3400
     16 F2         -1.8265   -1.9294    2.1499 F         1 <0>        -0.3400
     17 F3         -1.1386   -3.1841    0.5054 F         1 <0>        -0.3400
     18 H1          3.3269   -0.0265    1.4156 H         1 <0>         0.1500
     19 H2          1.8876   -1.8267    2.1847 H         1 <0>         0.1500
     20 H3          2.5367    1.6708   -0.2098 H         1 <0>         0.1500
     21 H4          0.3091    2.3826   -1.6866 H         1 <0>         0.0600
     22 H5         -2.7405    3.9532   -4.1643 H         1 <0>         0.0000
     23 H6         -3.9333    3.3050   -2.9959 H         1 <0>         0.0000
     24 H7         -3.3528    2.2880   -4.3410 H         1 <0>         0.0000
     25 H8         -3.6276    0.0985   -1.5969 H         1 <0>         0.4500
@<TRIPOS>BOND
     1    1    2 ar
     2    1    3 ar
     3    2    5 ar
     4    3   12 ar
     5    4    6 1
     6    4   12 2
     7    5    7 ar
     8    5   10 1
     9    6    8 2
    10    6   11 1
    11    7   11 2
    12    7   12 ar
    13    8   13 1
    14    8   14 1
    15    9   14 1
    16   10   15 1
    17   10   16 1
    18   10   17 1
    19    1   18 1
    20    2   19 1
    21    3   20 1
    22    4   21 1
    23    9   22 1
    24    9   23 1
    25    9   24 1
    26   13   25 1
