@<TRIPOS>MOLECULE
*****
   36    37     0     0     0
SMALL
USER_CHARGES

@<TRIPOS>ATOM
      1 C1         -1.0458    2.2943   -0.4321 C.ar      1 <0>        -0.1500
      2 C2         -0.3018    2.0644   -1.6065 C.ar      1 <0>        -0.1500
      3 C3         -1.0665    1.3528    0.6037 C.ar      1 <0>        -0.1500
      4 C4          0.4346    0.8900   -1.7669 C.ar      1 <0>        -0.1500
      5 C5         -0.3350    0.1924    0.4377 C.ar      1 <0>         0.1790
      6 C6          0.3907   -0.0130   -0.7275 C.ar      1 <0>         0.3640
      7 C7          0.5880   -1.7338    0.7158 C.2       1 <0>         0.7850
      8 C8          3.4956   -2.9148    1.4761 C.2       1 <0>         0.7800
      9 C9          6.0043   -1.6911    0.8768 C.3       1 <0>         0.0000
     10 C10         6.6843   -2.3813    3.1942 C.3       1 <0>         0.0000
     11 C11         6.0856   -4.1299    1.4936 C.3       1 <0>         0.0000
     12 C12         1.0156   -3.0390    1.2892 C.3       1 <0>         0.3611
     13 C13         5.8014   -2.7142    1.9935 C.3       1 <0>         0.2800
     14 N1         -0.1991   -0.8881    1.3227 N.2       1 <0>        -0.6290
     15 N2          2.2300   -2.8186    2.0257 N.am      1 <0>        -0.7301
     16 N3          1.0487   -1.2934   -0.6260 N.4       1 <0>        -0.6600
     17 O1          3.7453   -3.1957    0.3085 O.2       1 <0>        -0.5700
     18 O2          4.4387   -2.6494    2.4288 O.3       1 <0>        -0.4300
     19 H1         -1.6122    3.2165   -0.3303 H         1 <0>         0.1500
     20 H2         -0.3038    2.8117   -2.3956 H         1 <0>         0.1500
     21 H3         -1.6410    1.5360    1.5050 H         1 <0>         0.1500
     22 H4          1.0099    0.7054   -2.6660 H         1 <0>         0.1500
     23 H5          5.3722   -1.9266    0.0130 H         1 <0>         0.0000
     24 H6          5.7700   -0.6757    1.2126 H         1 <0>         0.0000
     25 H7          7.0390   -1.7062    0.5159 H         1 <0>         0.0000
     26 H8          6.5420   -3.1128    3.9979 H         1 <0>         0.0000
     27 H9          6.4188   -1.4048    3.6151 H         1 <0>         0.0000
     28 H10         7.7451   -2.3654    2.9237 H         1 <0>         0.0000
     29 H11         5.9402   -4.8639    2.2944 H         1 <0>         0.0000
     30 H12         5.4353   -4.3997    0.6552 H         1 <0>         0.0000
     31 H13         7.1285   -4.2271    1.1707 H         1 <0>         0.0000
     32 H14         1.1855   -3.7490    0.4767 H         1 <0>         0.0000
     33 H15         0.2311   -3.4148    1.9498 H         1 <0>         0.0000
     34 H16         2.1539   -2.5768    3.0125 H         1 <0>         0.3700
     35 H17         0.7258   -1.9390   -1.3562 H         1 <0>         0.4500
     36 H18         2.0702   -1.1928   -0.6486 H         1 <0>         0.4500
@<TRIPOS>BOND
     1    1    2 ar
     2    1    3 ar
     3    2    4 ar
     4    3    5 ar
     5    4    6 ar
     6    5    6 ar
     7    5   14 1
     8    6   16 1
     9    7   12 1
    10    7   14 2
    11    7   16 1
    12    8   15 am
    13    8   17 2
    14    8   18 1
    15    9   13 1
    16   10   13 1
    17   11   13 1
    18   12   15 1
    19   13   18 1
    20    1   19 1
    21    2   20 1
    22    3   21 1
    23    4   22 1
    24    9   23 1
    25    9   24 1
    26    9   25 1
    27   10   26 1
    28   10   27 1
    29   10   28 1
    30   11   29 1
    31   11   30 1
    32   11   31 1
    33   12   32 1
    34   12   33 1
    35   15   34 1
    36   16   35 1
    37   16   36 1
