@<TRIPOS>MOLECULE
*****
   43    44     0     0     0
SMALL
USER_CHARGES

@<TRIPOS>ATOM
      1 C1          0.0548   -1.5800    3.4717 C.ar      1 <0>        -0.1500
      2 C2         -1.7045   -0.5402    4.7602 C.ar      1 <0>        -0.1500
      3 C3         -1.0774   -0.7679    3.5352 C.ar      1 <0>        -0.1435
      4 C4          0.5600   -2.1646    4.6331 C.ar      1 <0>        -0.1435
      5 C5         -1.1993   -1.1247    5.9217 C.ar      1 <0>        -0.1435
      6 C6         -0.0671   -1.9369    5.8580 C.ar      1 <0>         0.0825
      7 C7         -4.1035   -0.5423    2.1009 C.2       1 <0>        -0.0500
      8 C8         -2.8353   -0.8329    1.7652 C.2       1 <0>        -0.1238
      9 C9         -2.7122   -1.9676    0.7829 C.2       1 <0>         0.4856
     10 C10        -5.1793   -2.2406    0.7167 C.2       1 <0>         0.5500
     11 C11         1.7732   -3.0308    4.5447 C.3       1 <0>         0.1435
     12 C12        -3.1190    0.0653    7.0372 C.3       1 <0>         0.0000
     13 C13        -0.9225   -0.1820    8.2415 C.3       1 <0>         0.0000
     14 C14        -2.4281   -2.1397    7.9552 C.3       1 <0>         0.0000
     15 C15        -1.6235   -0.1368    2.2807 C.3       1 <0>         0.2817
     16 C16        -1.8842   -0.8688    7.2238 C.3       1 <0>         0.1435
     17 N1         -1.5303   -2.3401    0.3828 N.2       1 <0>        -0.8500
     18 N2         -6.2419   -2.8452    0.2705 N.2       1 <0>        -0.8500
     19 N3         -5.2200   -1.1902    1.6208 N.pl3     1 <0>        -0.5500
     20 N4         -3.8832   -2.5755    0.3408 N.pl3     1 <0>        -0.5000
     21 O1          0.4274   -2.5078    6.9937 O.3       1 <0>        -0.5325
     22 H1          0.5432   -1.7577    2.5163 H         1 <0>         0.1500
     23 H2         -2.5858    0.0953    4.8092 H         1 <0>         0.1500
     24 H3         -4.3485    0.2506    2.7980 H         1 <0>         0.1500
     25 H4          2.6801   -2.4291    4.6759 H         1 <0>         0.0000
     26 H5          1.7586   -3.8132    5.3136 H         1 <0>         0.0000
     27 H6          1.8279   -3.5386    3.5737 H         1 <0>         0.0000
     28 H7         -3.6406    0.2693    7.9796 H         1 <0>         0.0000
     29 H8         -2.8300    1.0341    6.6154 H         1 <0>         0.0000
     30 H9         -3.8401   -0.3913    6.3489 H         1 <0>         0.0000
     31 H10        -1.4198    0.0081    9.1989 H         1 <0>         0.0000
     32 H11        -0.0336   -0.7866    8.4570 H         1 <0>         0.0000
     33 H12        -0.5820    0.7839    7.8500 H         1 <0>         0.0000
     34 H13        -2.9217   -1.9005    8.9049 H         1 <0>         0.0000
     35 H14        -3.1637   -2.6634    7.3335 H         1 <0>         0.0000
     36 H15        -1.6140   -2.8378    8.1826 H         1 <0>         0.0000
     37 H16        -1.8623    0.9161    2.4778 H         1 <0>         0.0000
     38 H17        -0.8520   -0.1260    1.5009 H         1 <0>         0.0000
     39 H18        -1.6379   -3.1142   -0.2742 H         1 <0>         0.4000
     40 H19        -5.9520   -3.5784   -0.3785 H         1 <0>         0.4000
     41 H20        -6.1142   -0.8578    1.9671 H         1 <0>         0.4000
     42 H21        -3.7814   -3.3398   -0.3221 H         1 <0>         0.4000
     43 H22         1.2114   -3.0390    6.7858 H         1 <0>         0.4500
@<TRIPOS>BOND
     1    1    3 ar
     2    1    4 ar
     3    2    3 ar
     4    2    5 ar
     5    3   15 1
     6    4    6 ar
     7    4   11 1
     8    5    6 ar
     9    5   16 1
    10    6   21 1
    11    7    8 2
    12    7   19 1
    13    8    9 1
    14    8   15 1
    15    9   17 2
    16    9   20 1
    17   10   18 2
    18   10   19 1
    19   10   20 1
    20   12   16 1
    21   13   16 1
    22   14   16 1
    23    1   22 1
    24    2   23 1
    25    7   24 1
    26   11   25 1
    27   11   26 1
    28   11   27 1
    29   12   28 1
    30   12   29 1
    31   12   30 1
    32   13   31 1
    33   13   32 1
    34   13   33 1
    35   14   34 1
    36   14   35 1
    37   14   36 1
    38   15   37 1
    39   15   38 1
    40   17   39 1
    41   18   40 1
    42   19   41 1
    43   20   42 1
    44   21   43 1
