@<TRIPOS>MOLECULE
*****
   30    31     0     0     0
SMALL
USER_CHARGES

@<TRIPOS>ATOM
      1 C1         -5.1107    1.8979    4.8565 C.2       1 <0>        -0.1500
      2 C2         -4.6909    0.8126    4.0508 C.2       1 <0>        -0.1500
      3 C3         -4.4881    3.0141    4.3482 C.2       1 <0>        -0.0100
      4 C4         -3.8420    1.3431    3.1074 C.2       1 <0>        -0.0400
      5 C5          0.5439    0.7227    1.1124 C.2       1 <0>        -0.1356
      6 C6         -0.6679   -0.5009   -1.1723 C.2       1 <0>        -0.2882
      7 C7          0.6500   -0.2541   -1.1215 C.2       1 <0>        -0.0170
      8 C8          1.2635    0.3341    0.0504 C.2       1 <0>         0.1400
      9 C9         -0.9281    0.5356    1.1136 C.2       1 <0>         0.3746
     10 C10        -2.1108   -1.5459    0.4505 C.2       1 <0>         0.9060
     11 C11        -1.6005   -0.2053   -0.0364 C.3       1 <0>         0.0932
     12 C12        -3.0645    0.7418    1.9702 C.3       1 <0>         0.4260
     13 N1          2.1564    0.7521   -2.9300 N.2       1 <0>        -0.6901
     14 N2         -1.6386    0.9942    2.0964 N.2       1 <0>        -0.6960
     15 O1         -1.2271   -2.3299    0.8950 O.co2     1 <0>        -0.9000
     16 O2         -3.3594   -1.7062    0.3482 O.co2     1 <0>        -0.9000
     17 O3          2.5585   -1.6412   -2.0798 O.2       1 <0>        -0.6500
     18 O4          0.5812   -1.2036   -3.4835 O.2       1 <0>        -0.6500
     19 O5         -3.7131    2.6845    3.2818 O.3       1 <0>        -0.2800
     20 S1          1.5580   -0.6693   -2.5301 S.o2      1 <0>         0.8571
     21 Cl1         2.9813    0.5668    0.0971 Cl        1 <0>        -0.1400
     22 H1         -5.7825    1.8700    5.7021 H         1 <0>         0.1500
     23 H2         -4.9736   -0.2259    4.1485 H         1 <0>         0.1500
     24 H3         -4.4925    4.0601    4.6176 H         1 <0>         0.1500
     25 H4          0.9927    1.1780    1.9889 H         1 <0>         0.1500
     26 H5         -1.1176   -0.9345   -2.0629 H         1 <0>         0.1500
     27 H6         -2.4411    0.3958   -0.3993 H         1 <0>         0.0000
     28 H7         -3.2412   -0.3391    1.9227 H         1 <0>         0.0000
     29 H8         -3.4165    1.1515    1.0167 H         1 <0>         0.0000
     30 H9          2.7300    0.6410   -3.7735 H         1 <0>         0.1500
@<TRIPOS>BOND
     1    1    2 1
     2    1    3 2
     3    2    4 2
     4    3   19 1
     5    4   12 1
     6    4   19 1
     7    5    8 2
     8    5    9 1
     9    6    7 2
    10    6   11 1
    11    7    8 1
    12    7   20 1
    13    8   21 1
    14    9   11 1
    15    9   14 2
    16   10   11 1
    17   10   15 1
    18   10   16 2
    19   12   14 1
    20   13   20 1
    21   17   20 2
    22   18   20 2
    23    1   22 1
    24    2   23 1
    25    3   24 1
    26    5   25 1
    27    6   26 1
    28   11   27 1
    29   12   28 1
    30   12   29 1
    31   13   30 1
