@<TRIPOS>MOLECULE
*****
   31    32     0     0     0
SMALL
USER_CHARGES

@<TRIPOS>ATOM
      1 C1         -5.2315    1.4880    4.6847 C.2       1 <0>        -0.1500
      2 C2         -4.4068    0.4373    4.2168 C.2       1 <0>        -0.1500
      3 C3         -5.1886    2.4663    3.7188 C.2       1 <0>        -0.0100
      4 C4         -3.9189    0.8483    2.9981 C.2       1 <0>        -0.0400
      5 C5          0.1984    1.3204    0.4940 C.2       1 <0>        -0.1356
      6 C6         -0.3413   -1.1859   -0.7567 C.2       1 <0>        -0.2882
      7 C7         -1.2659   -0.7247    0.0995 C.2       1 <0>        -0.2356
      8 C8          1.0966    0.8258   -0.3654 C.2       1 <0>         0.0018
      9 C9         -1.0304    0.5543    0.8337 C.2       1 <0>         0.4212
     10 C10        -2.5141   -1.5667    0.2536 C.2       1 <0>         1.0500
     11 C11         0.9576   -0.4977   -1.0454 C.3       1 <0>         0.3816
     12 C12        -3.0013    0.2133    1.9911 C.3       1 <0>         0.4260
     13 N1         -1.8307    1.0357    1.7312 N.2       1 <0>        -0.6960
     14 N2          1.9029   -2.9590   -1.3611 N.pl3     1 <0>        -0.9780
     15 O1         -2.4590   -2.4465    1.1584 O.co2     1 <0>        -0.9000
     16 O2         -3.4535   -1.2833   -0.5420 O.co2     1 <0>        -0.9000
     17 O3          3.5061   -1.0243   -0.8101 O.2       1 <0>        -0.6500
     18 O4          1.9161   -1.8629    0.9660 O.2       1 <0>        -0.6500
     19 O5         -4.3908    2.0841    2.6873 O.3       1 <0>        -0.2800
     20 S1          2.2202   -1.5728   -0.4225 S.o2      1 <0>         1.3328
     21 Cl1         2.4656    1.7896   -0.8124 Cl        1 <0>        -0.1400
     22 H1         -5.7873    1.5276    5.6103 H         1 <0>         0.1500
     23 H2         -4.1960   -0.5014    4.7091 H         1 <0>         0.1500
     24 H3         -5.6452    3.4403    3.6207 H         1 <0>         0.1500
     25 H4          0.3223    2.2924    0.9609 H         1 <0>         0.1500
     26 H5         -0.5208   -2.1140   -1.2965 H         1 <0>         0.1500
     27 H6          1.0976   -0.4064   -2.1272 H         1 <0>         0.0000
     28 H7         -2.6827   -0.7751    2.3421 H         1 <0>         0.0000
     29 H8         -3.5360    0.0457    1.0492 H         1 <0>         0.0000
     30 H9          2.5756   -3.2030   -2.0983 H         1 <0>         0.4200
     31 H10         1.4926   -3.7740   -0.8888 H         1 <0>         0.4200
@<TRIPOS>BOND
     1    1    2 1
     2    1    3 2
     3    2    4 2
     4    3   19 1
     5    4   12 1
     6    4   19 1
     7    5    8 2
     8    5    9 1
     9    6    7 2
    10    6   11 1
    11    7    9 1
    12    7   10 1
    13    8   11 1
    14    8   21 1
    15    9   13 2
    16   10   15 1
    17   10   16 2
    18   11   20 1
    19   12   13 1
    20   14   20 1
    21   17   20 2
    22   18   20 2
    23    1   22 1
    24    2   23 1
    25    3   24 1
    26    5   25 1
    27    6   26 1
    28   11   27 1
    29   12   28 1
    30   12   29 1
    31   14   30 1
    32   14   31 1
