@<TRIPOS>MOLECULE
*****
   47    50     0     0     0
SMALL
USER_CHARGES

@<TRIPOS>ATOM
      1 C1          9.2608    1.0300    8.3974 C.ar      1 <0>        -0.1500
      2 C2          8.8809    1.7063    7.2359 C.ar      1 <0>        -0.1500
      3 C3          8.7216   -0.2239    8.7112 C.ar      1 <0>        -0.1500
      4 C4          7.9510    1.1567    6.3472 C.ar      1 <0>        -0.1500
      5 C5          6.3677   -2.2512   13.3007 C.ar      1 <0>         0.1600
      6 C6          5.4804   -0.0973   13.4728 C.ar      1 <0>         0.1600
      7 C7          4.2294   -3.3309   10.5924 C.ar      1 <0>         0.2110
      8 C8          5.2762   -1.4216   13.1431 C.ar      1 <0>        -0.1435
      9 C9          3.8775   -2.1190   11.1652 C.ar      1 <0>        -0.1435
     10 C10         7.7858   -0.7910    7.8297 C.ar      1 <0>         0.2272
     11 C11         7.4271   -0.0929    6.6800 C.ar      1 <0>        -0.1516
     12 C12         3.4711   -1.1111   10.3045 C.ar      1 <0>         0.3925
     13 C13         6.3652   -2.0284    6.8245 C.2       1 <0>         0.0065
     14 C14         7.6429   -0.5178   14.0330 C.ar      1 <0>         0.7025
     15 C15         3.7611   -2.4544    8.4989 C.ar      1 <0>         0.7725
     16 C16         5.8437   -0.6277    4.8085 C.3       1 <0>         0.2556
     17 C17         9.8967   -1.0123   14.6087 C.3       1 <0>         0.2800
     18 C18         3.9392   -1.9321   12.6391 C.3       1 <0>         0.2870
     19 C19         5.4485   -3.1230    6.4449 C.3       1 <0>         0.4100
     20 N1          7.5705   -1.8312   13.7449 N.ar      1 <0>        -0.6200
     21 N2          6.6550    0.3908   13.9226 N.ar      1 <0>        -0.6200
     22 N3          7.1163   -1.9909    7.9023 N.2       1 <0>        -0.5653
     23 N4          3.3997   -1.2415    8.9622 N.ar      1 <0>        -0.6200
     24 N5          6.5174   -0.9078    6.0563 N.pl3     1 <0>         0.0476
     25 N6          4.1646   -3.4777    9.2621 N.ar      1 <0>        -0.1790
     26 O1          3.1125    0.1094   10.8158 O.3       1 <0>        -0.5325
     27 O2          8.8546   -0.0546   14.4903 O.3       1 <0>        -0.3625
     28 S1          3.6961   -2.7227    6.7558 S.3       1 <0>        -0.3315
     29 H1          9.9869    1.4823    9.0680 H         1 <0>         0.1500
     30 H2          9.3156    2.6789    7.0177 H         1 <0>         0.1500
     31 H3          9.0241   -0.7413    9.6158 H         1 <0>         0.1500
     32 H4          7.6573    1.6820    5.4453 H         1 <0>         0.1500
     33 H5          6.3104   -3.3098   13.0678 H         1 <0>         0.1500
     34 H6          4.6844    0.6356   13.3843 H         1 <0>         0.1500
     35 H7          4.5637   -4.1971   11.1463 H         1 <0>         0.1500
     36 H8          6.4583   -1.0254    3.9966 H         1 <0>         0.0000
     37 H9          4.8593   -1.1039    4.8113 H         1 <0>         0.0000
     38 H10         5.7183    0.4533    4.7002 H         1 <0>         0.0000
     39 H11        10.8013   -0.5237   14.9791 H         1 <0>         0.0000
     40 H12        10.0883   -1.4661   13.6331 H         1 <0>         0.0000
     41 H13         9.5888   -1.7872   15.3147 H         1 <0>         0.0000
     42 H14         3.7009   -2.8760   13.1636 H         1 <0>         0.0000
     43 H15         3.1458   -1.2410   12.9793 H         1 <0>         0.0000
     44 H16         5.5491   -3.3843    5.3759 H         1 <0>         0.0000
     45 H17         5.6816   -4.0528    6.9947 H         1 <0>         0.0000
     46 H18         4.4207   -4.3642    8.8310 H         1 <0>         0.4570
     47 H19         2.8552    0.7019   10.0960 H         1 <0>         0.4500
@<TRIPOS>BOND
     1    1    2 ar
     2    1    3 ar
     3    2    4 ar
     4    3   10 ar
     5    4   11 ar
     6    5    8 ar
     7    5   20 ar
     8    6    8 ar
     9    6   21 ar
    10    7    9 ar
    11    7   25 ar
    12    8   18 1
    13    9   12 ar
    14    9   18 1
    15   10   11 ar
    16   10   22 1
    17   11   24 1
    18   12   23 ar
    19   12   26 1
    20   13   19 1
    21   13   22 2
    22   13   24 1
    23   14   20 ar
    24   14   21 ar
    25   14   27 1
    26   15   23 ar
    27   15   25 ar
    28   15   28 1
    29   16   24 1
    30   17   27 1
    31   19   28 1
    32    1   29 1
    33    2   30 1
    34    3   31 1
    35    4   32 1
    36    5   33 1
    37    6   34 1
    38    7   35 1
    39   16   36 1
    40   16   37 1
    41   16   38 1
    42   17   39 1
    43   17   40 1
    44   17   41 1
    45   18   42 1
    46   18   43 1
    47   19   44 1
    48   19   45 1
    49   25   46 1
    50   26   47 1
