@<TRIPOS>MOLECULE
*****
   27    29     0     0     0
SMALL
USER_CHARGES

@<TRIPOS>ATOM
      1 C1         -5.9100   -1.7645   -0.5009 C.ar      1 <0>        -0.1500
      2 C2         -5.2947   -1.7429    0.7506 C.ar      1 <0>        -0.1500
      3 C3         -5.1805   -1.4327   -1.6426 C.ar      1 <0>        -0.1500
      4 C4         -3.9499   -1.3894    0.8606 C.ar      1 <0>        -0.1500
      5 C5         -3.8357   -1.0792   -1.5327 C.ar      1 <0>        -0.1500
      6 C6         -3.2203   -1.0575   -0.2810 C.ar      1 <0>         0.0284
      7 C7          0.5822   -1.1716   -0.1161 C.2       1 <0>        -0.1500
      8 C8         -1.8170   -0.6884   -0.1669 C.2       1 <0>         0.3126
      9 C9          0.8126    0.1294    0.0574 C.2       1 <0>        -0.0156
     10 C10        -0.8086   -1.5940   -0.2364 C.2       1 <0>         0.1400
     11 C11         2.0398    0.9543    0.2188 C.2       1 <0>         0.4856
     12 C12        -0.2955    1.0903    0.1238 C.cat     1 <0>         0.7388
     13 N1          1.7358    2.2354    0.3631 N.2       1 <0>        -0.2800
     14 N2         -1.5483    0.6725    0.0125 N.pl3     1 <0>        -0.6454
     15 N3          0.3028    2.2609    0.2974 N.pl3     1 <0>        -0.4744
     16 N4          3.3079    0.4442    0.2169 N.pl3     1 <0>        -0.8500
     17 Cl1        -1.0822   -3.2886   -0.4640 Cl        1 <0>        -0.1400
     18 H1         -6.9568   -2.0410   -0.5867 H         1 <0>         0.1500
     19 H2         -5.8623   -2.0024    1.6397 H         1 <0>         0.1500
     20 H3         -5.6592   -1.4506   -2.6173 H         1 <0>         0.1500
     21 H4         -3.4841   -1.3770    1.8432 H         1 <0>         0.1500
     22 H5         -3.2804   -0.8231   -2.4319 H         1 <0>         0.1500
     23 H6          1.3845   -1.8975   -0.1683 H         1 <0>         0.1500
     24 H7         -2.3075    1.3443    0.0603 H         1 <0>         0.4500
     25 H8         -0.2209    3.1246    0.3786 H         1 <0>         0.4500
     26 H9          3.4242   -0.5377    0.1010 H         1 <0>         0.4000
     27 H10         4.0722    1.0716    0.3315 H         1 <0>         0.4000
@<TRIPOS>BOND
     1    1    2 ar
     2    1    3 ar
     3    2    4 ar
     4    3    5 ar
     5    4    6 ar
     6    5    6 ar
     7    6    8 1
     8    7    9 2
     9    7   10 1
    10    8   10 2
    11    8   14 1
    12    9   11 1
    13    9   12 1
    14   10   17 1
    15   11   13 2
    16   11   16 1
    17   12   14 1
    18   12   15 2
    19   13   15 1
    20    1   18 1
    21    2   19 1
    22    3   20 1
    23    4   21 1
    24    5   22 1
    25    7   23 1
    26   14   24 1
    27   15   25 1
    28   16   26 1
    29   16   27 1
