@<TRIPOS>MOLECULE
*****
   26    28     0     0     0
SMALL
USER_CHARGES

@<TRIPOS>ATOM
      1 C1          7.0900   -0.3636   -1.5884 C.ar      1 <0>        -0.1500
      2 C2          6.2963   -1.4871   -1.8192 C.ar      1 <0>        -0.1500
      3 C3          6.4993    0.8937   -1.4615 C.ar      1 <0>        -0.1500
      4 C4          4.9117   -1.3534   -1.9233 C.ar      1 <0>        -0.1500
      5 C5          5.1147    1.0274   -1.5656 C.ar      1 <0>        -0.1500
      6 C6          0.6654    0.0709   -0.8478 C.ar      1 <0>        -0.1500
      7 C7          0.2956    0.2992   -2.1646 C.ar      1 <0>         0.0000
      8 C8          4.3209   -0.0961   -1.7965 C.ar      1 <0>         0.0000
      9 C9          2.0553   -0.0595   -0.7577 C.ar      1 <0>         0.1770
     10 C10         2.8795    0.0426   -1.9046 C.ar      1 <0>         0.3100
     11 C11         1.1423    0.3995   -3.3104 C.ar      1 <0>         0.5448
     12 C12        -0.9812    0.4749   -2.6222 C.2       1 <0>        -0.0676
     13 N1          2.4945    0.2692   -3.2014 N.ar      1 <0>        -0.5660
     14 N2          0.4269    0.6256   -4.4181 N.2       1 <0>        -0.7068
     15 N3         -0.8458    0.6655   -3.9704 N.pl3     1 <0>         0.2996
     16 N4         -2.1995    0.4905   -2.0476 N.pl3     1 <0>        -0.8840
     17 Cl1         2.7238   -0.3502    0.8144 Cl        1 <0>        -0.1770
     18 H1          8.1679   -0.4682   -1.5057 H         1 <0>         0.1500
     19 H2          6.7559   -2.4663   -1.9163 H         1 <0>         0.1500
     20 H3          7.1166    1.7687   -1.2804 H         1 <0>         0.1500
     21 H4          4.3066   -2.2389   -2.1031 H         1 <0>         0.1500
     22 H5          4.6683    2.0137   -1.4639 H         1 <0>         0.1500
     23 H6         -0.0106    0.0022   -0.0072 H         1 <0>         0.1500
     24 H7         -1.5825    0.8297   -4.6447 H         1 <0>         0.2700
     25 H8         -2.3371    0.3023   -1.0419 H         1 <0>         0.4000
     26 H9         -3.0666    0.5975   -2.5975 H         1 <0>         0.4000
@<TRIPOS>BOND
     1    1    2 ar
     2    1    3 ar
     3    2    4 ar
     4    3    5 ar
     5    4    8 ar
     6    5    8 ar
     7    6    7 ar
     8    6    9 ar
     9    7   11 ar
    10    7   12 2
    11    8   10 1
    12    9   10 ar
    13    9   17 1
    14   10   13 ar
    15   11   13 ar
    16   11   14 2
    17   12   15 1
    18   12   16 1
    19   14   15 1
    20    1   18 1
    21    2   19 1
    22    3   20 1
    23    4   21 1
    24    5   22 1
    25    6   23 1
    26   15   24 1
    27   16   25 1
    28   16   26 1
