@<TRIPOS>MOLECULE
*****
   25    26     0     0     0
SMALL
USER_CHARGES

@<TRIPOS>ATOM
      1 C1          1.2779    1.6871    0.1212 C.ar      1 <0>        -0.1500
      2 C2         -0.5974    1.0432   -1.8344 C.ar      1 <0>        -0.1500
      3 C3          0.5232    0.5122    0.2227 C.ar      1 <0>         0.0862
      4 C4         -0.4302    0.1634   -0.7504 C.ar      1 <0>        -0.2520
      5 C5          1.0879    2.5377   -0.9656 C.ar      1 <0>         0.0825
      6 C6          0.1518    2.2174   -1.9430 C.ar      1 <0>         0.0825
      7 C7          0.6713   -0.4358    1.3464 C.2       1 <0>         0.5748
      8 C8         -0.9598   -1.7409    0.3689 C.2       1 <0>         0.4390
      9 C9          3.0686    3.5926   -1.7527 C.3       1 <0>         0.2800
     10 C10        -1.0312    4.0603   -2.8701 C.3       1 <0>         0.2800
     11 N1         -1.1767   -0.9607   -0.6863 N.2       1 <0>        -0.5280
     12 N2         -0.1230   -1.5561    1.3405 N.2       1 <0>        -0.6610
     13 N3          1.5068   -0.2464    2.3125 N.2       1 <0>        -0.8500
     14 O1          1.8252    3.6792   -1.0595 O.3       1 <0>        -0.3625
     15 O2         -0.0449    3.0399   -3.0110 O.3       1 <0>        -0.3625
     16 Cl1        -1.9162   -3.1737    0.4448 Cl        1 <0>        -0.2090
     17 H1          2.0117    1.9444    0.8805 H         1 <0>         0.1500
     18 H2         -1.3252    0.8132   -2.6124 H         1 <0>         0.1500
     19 H3          3.5547    4.5713   -1.7544 H         1 <0>         0.0000
     20 H4          2.8925    3.2595   -2.7786 H         1 <0>         0.0000
     21 H5          3.7105    2.8705   -1.2424 H         1 <0>         0.0000
     22 H6         -1.0873    4.6438   -3.7924 H         1 <0>         0.0000
     23 H7         -0.7680    4.7095   -2.0312 H         1 <0>         0.0000
     24 H8         -2.0002    3.5939   -2.6773 H         1 <0>         0.0000
     25 H9          1.4384   -1.0255    2.9743 H         1 <0>         0.4000
@<TRIPOS>BOND
     1    1    3 ar
     2    1    5 ar
     3    2    4 ar
     4    2    6 ar
     5    3    4 ar
     6    3    7 1
     7    4   11 1
     8    5    6 ar
     9    5   14 1
    10    6   15 1
    11    7   12 1
    12    7   13 2
    13    8   11 1
    14    8   12 2
    15    8   16 1
    16    9   14 1
    17   10   15 1
    18    1   17 1
    19    2   18 1
    20    9   19 1
    21    9   20 1
    22    9   21 1
    23   10   22 1
    24   10   23 1
    25   10   24 1
    26   13   25 1
