@<TRIPOS>MOLECULE
*****
   43    44     0     0     0
SMALL
USER_CHARGES

@<TRIPOS>ATOM
      1 C1         -3.0245   -2.6407   -0.6979 C.ar      1 <0>        -0.1500
      2 C2         -4.3479   -1.0929    0.6021 C.ar      1 <0>        -0.1500
      3 C3         -3.3370   -1.3324   -0.3288 C.ar      1 <0>        -0.1435
      4 C4         -3.7230   -3.7096   -0.1363 C.ar      1 <0>        -0.1435
      5 C5         -5.0463   -2.1618    1.1638 C.ar      1 <0>        -0.1435
      6 C6         -4.7338   -3.4701    0.7946 C.ar      1 <0>         0.0825
      7 C7         -4.2267    1.6633   -1.5238 C.2       1 <0>         0.3756
      8 C8         -3.3702    0.5286   -1.9909 C.2       1 <0>        -0.1238
      9 C9         -3.4136    0.2803   -3.3222 C.2       1 <0>         0.2000
     10 C10        -4.9959    2.1187   -3.6065 C.2       1 <0>         0.7110
     11 C11        -3.3738   -5.1032   -0.5440 C.3       1 <0>         0.1435
     12 C12        -6.2852   -0.3538    2.4056 C.3       1 <0>         0.0000
     13 C13        -5.8102   -2.5541    3.5321 C.3       1 <0>         0.0000
     14 C14        -7.5489   -2.3961    1.7620 C.3       1 <0>         0.0000
     15 C15        -2.5840   -0.1792   -0.9350 C.3       1 <0>         0.2817
     16 C16        -6.1249   -1.8853    2.1588 C.3       1 <0>         0.1435
     17 N1         -4.9879    2.4129   -2.2577 N.2       1 <0>        -0.6610
     18 N2         -5.7541    2.8628   -4.3538 N.2       1 <0>        -0.8500
     19 N3         -4.2310    1.0860   -4.1055 N.pl3     1 <0>        -0.5500
     20 N4         -2.6877   -0.7245   -3.9096 N.pl3     1 <0>        -0.9000
     21 O1         -5.4161   -4.5154    1.3443 O.3       1 <0>        -0.5325
     22 H1         -2.2366   -2.8271   -1.4240 H         1 <0>         0.1500
     23 H2         -4.5891   -0.0726    0.8912 H         1 <0>         0.1500
     24 H3         -4.1908    1.8640   -0.4399 H         1 <0>         0.0600
     25 H4         -2.5959   -5.5079    0.1138 H         1 <0>         0.0000
     26 H5         -4.2498   -5.7617   -0.4956 H         1 <0>         0.0000
     27 H6         -3.0081   -5.1338   -1.5779 H         1 <0>         0.0000
     28 H7         -7.0720   -0.1232    3.1333 H         1 <0>         0.0000
     29 H8         -5.3587    0.0914    2.7843 H         1 <0>         0.0000
     30 H9         -6.5369    0.1575    1.4688 H         1 <0>         0.0000
     31 H10        -6.5984   -2.3546    4.2663 H         1 <0>         0.0000
     32 H11        -5.7096   -3.6434    3.4585 H         1 <0>         0.0000
     33 H12        -4.8724   -2.1595    3.9408 H         1 <0>         0.0000
     34 H13        -8.3051   -2.1697    2.5233 H         1 <0>         0.0000
     35 H14        -7.8842   -1.9313    0.8275 H         1 <0>         0.0000
     36 H15        -7.5487   -3.4834    1.6220 H         1 <0>         0.0000
     37 H16        -2.3106    0.5342   -0.1495 H         1 <0>         0.0000
     38 H17        -1.6400   -0.5293   -1.3662 H         1 <0>         0.0000
     39 H18        -5.6730    2.5471   -5.3224 H         1 <0>         0.4000
     40 H19        -4.2411    0.8749   -5.0978 H         1 <0>         0.4000
     41 H20        -2.1104   -1.2875   -3.3298 H         1 <0>         0.4000
     42 H21        -2.7679   -0.8499   -4.8916 H         1 <0>         0.4000
     43 H22        -5.0841   -5.3541    0.9890 H         1 <0>         0.4500
@<TRIPOS>BOND
     1    1    3 ar
     2    1    4 ar
     3    2    3 ar
     4    2    5 ar
     5    3   15 1
     6    4    6 ar
     7    4   11 1
     8    5    6 ar
     9    5   16 1
    10    6   21 1
    11    7    8 1
    12    7   17 2
    13    8    9 2
    14    8   15 1
    15    9   19 1
    16    9   20 1
    17   10   17 1
    18   10   18 2
    19   10   19 1
    20   12   16 1
    21   13   16 1
    22   14   16 1
    23    1   22 1
    24    2   23 1
    25    7   24 1
    26   11   25 1
    27   11   26 1
    28   11   27 1
    29   12   28 1
    30   12   29 1
    31   12   30 1
    32   13   31 1
    33   13   32 1
    34   13   33 1
    35   14   34 1
    36   14   35 1
    37   14   36 1
    38   15   37 1
    39   15   38 1
    40   18   39 1
    41   19   40 1
    42   20   41 1
    43   20   42 1
    44   21   43 1
