@<TRIPOS>MOLECULE
*****
   39    40     0     0     0
SMALL
USER_CHARGES

@<TRIPOS>ATOM
      1 C1          0.7810   -4.0225   -1.7314 C.ar      1 <0>        -0.1500
      2 C2          0.1934   -3.9357    0.6103 C.ar      1 <0>        -0.1500
      3 C3          0.0544   -3.4475   -0.6889 C.ar      1 <0>        -0.1435
      4 C4          1.6466   -5.0858   -1.4748 C.ar      1 <0>         0.0825
      5 C5          1.0590   -4.9990    0.8670 C.ar      1 <0>         0.0825
      6 C6          1.7856   -5.5740   -0.1756 C.ar      1 <0>         0.0825
      7 C7         -1.9348   -2.6488   -1.9666 C.2       1 <0>        -0.1238
      8 C8         -1.9765   -2.2508   -3.2546 C.2       1 <0>        -0.1233
      9 C9         -3.1005   -3.5105   -1.6240 C.2       1 <0>         0.2156
     10 C10        -3.9769   -3.3742   -3.7378 C.cat     1 <0>         0.2900
     11 C11         2.1503   -5.0803   -3.7990 C.3       1 <0>         0.2800
     12 C12         0.4073   -4.8224    3.1473 C.3       1 <0>         0.2800
     13 C13        -1.2402   -0.0736   -3.5633 C.3       1 <0>         0.2800
     14 C14        -0.8788   -2.3006   -0.9654 C.3       1 <0>         0.2817
     15 N1         -2.8852   -2.5154   -4.2208 N.2       1 <0>        -0.5700
     16 N2         -4.0332   -3.8315   -2.4633 N.2       1 <0>        -0.6510
     17 N3         -3.1510   -3.9556   -0.3776 N.2       1 <0>        -0.9300
     18 N4         -4.9024   -3.7100   -4.5140 N.pl3     1 <0>        -0.1190
     19 O1          2.6317   -6.6133    0.0752 O.3       1 <0>        -0.5325
     20 O2          2.3505   -5.6385   -2.5020 O.3       1 <0>        -0.3625
     21 O3          1.1857   -5.4661    2.1405 O.3       1 <0>        -0.3625
     22 O4         -0.9568   -1.4392   -3.7279 O.3       1 <0>        -0.3567
     23 H1          0.6745   -3.6436   -2.7451 H         1 <0>         0.1500
     24 H2         -0.3719   -3.4891    1.4249 H         1 <0>         0.1500
     25 H3          2.7701   -5.6121   -4.5251 H         1 <0>         0.0000
     26 H4          2.4150   -4.0200   -3.7852 H         1 <0>         0.0000
     27 H5          1.0982   -5.1875   -4.0737 H         1 <0>         0.0000
     28 H6          0.6023   -5.2912    4.1150 H         1 <0>         0.0000
     29 H7         -0.6535   -4.9051    2.8975 H         1 <0>         0.0000
     30 H8          0.6877   -3.7674    3.1931 H         1 <0>         0.0000
     31 H9         -0.4092    0.5210   -3.9505 H         1 <0>         0.0000
     32 H10        -1.3938    0.1423   -2.5030 H         1 <0>         0.0000
     33 H11        -2.1493    0.1701   -4.1182 H         1 <0>         0.0000
     34 H12        -1.3582   -1.9830   -0.0333 H         1 <0>         0.0000
     35 H13        -0.3169   -1.4336   -1.3274 H         1 <0>         0.0000
     36 H14        -3.0793   -4.9760   -0.3917 H         1 <0>         0.1500
     37 H15        -4.9522   -3.4104   -5.5158 H         1 <0>         0.4000
     38 H16        -5.7042   -4.3185   -4.2263 H         1 <0>         0.4000
     39 H17         3.0603   -6.9006   -0.7457 H         1 <0>         0.4500
@<TRIPOS>BOND
     1    1    3 ar
     2    1    4 ar
     3    2    3 ar
     4    2    5 ar
     5    3   14 1
     6    4    6 ar
     7    4   20 1
     8    5    6 ar
     9    5   21 1
    10    6   19 1
    11    7    8 2
    12    7    9 1
    13    7   14 1
    14    8   15 1
    15    8   22 1
    16    9   16 2
    17    9   17 1
    18   10   15 1
    19   10   16 1
    20   10   18 2
    21   11   20 1
    22   12   21 1
    23   13   22 1
    24    1   23 1
    25    2   24 1
    26   11   25 1
    27   11   26 1
    28   11   27 1
    29   12   28 1
    30   12   29 1
    31   12   30 1
    32   13   31 1
    33   13   32 1
    34   13   33 1
    35   14   34 1
    36   14   35 1
    37   17   36 1
    38   18   37 1
    39   18   38 1
    40   19   39 1
