@<TRIPOS>MOLECULE
*****
   48    51     0     0     0
SMALL
USER_CHARGES

@<TRIPOS>ATOM
      1 C1         -6.4209   -2.8308   -4.6737 C.ar      1 <0>        -0.1500
      2 C2         -6.9279   -3.6467   -3.6435 C.ar      1 <0>        -0.1500
      3 C3         -5.0820   -2.4188   -4.6793 C.ar      1 <0>        -0.1500
      4 C4         -6.1074   -4.0680   -2.5978 C.ar      1 <0>        -0.1500
      5 C5          5.5187   -2.7933   -1.2504 C.ar      1 <0>         0.1600
      6 C6          5.3950   -0.9647    0.1977 C.ar      1 <0>         0.1600
      7 C7          5.1451   -2.3051   -0.0149 C.ar      1 <0>        -0.1435
      8 C8         -4.2681   -2.8349   -3.6448 C.ar      1 <0>         0.1000
      9 C9         -4.7949   -3.6461   -2.6319 C.ar      1 <0>         0.3640
     10 C10         6.2837   -0.7485   -1.8832 C.ar      1 <0>         0.7025
     11 C11         2.6323   -4.4964    0.0275 C.2       1 <0>         0.1910
     12 C12         3.0648   -3.4519    0.7494 C.2       1 <0>        -0.1238
     13 C13         2.0620   -2.5068    1.3067 C.2       1 <0>         0.9366
     14 C14        -2.5935   -3.2502   -2.2001 C.2       1 <0>         0.4560
     15 C15         0.3762   -3.9146    0.2583 C.cat     1 <0>         0.8398
     16 C16        -1.4405   -3.3278   -1.5268 C.2       1 <0>        -0.0490
     17 C17        -2.1026   -1.7829   -4.2432 C.3       1 <0>         0.3691
     18 C18         7.2064   -0.5775   -4.0685 C.3       1 <0>         0.2800
     19 C19         4.5058   -3.1773    1.0319 C.3       1 <0>         0.2817
     20 N1          6.0925   -2.0404   -2.2117 N.ar      1 <0>        -0.6200
     21 N2          5.9651   -0.1539   -0.7177 N.ar      1 <0>        -0.6200
     22 N3          0.7049   -2.8499    0.9860 N.am      1 <0>        -0.6854
     23 N4         -2.9241   -2.5957   -3.3788 N.pl3     1 <0>        -0.5691
     24 N5          1.3013   -4.7370   -0.2232 N.pl3     1 <0>        -0.6454
     25 N6         -3.7430   -3.9508   -1.6568 N.4       1 <0>        -0.6200
     26 O1          2.3137   -1.5200    1.9779 O.2       1 <0>        -0.5700
     27 O2          6.8684    0.0489   -2.8394 O.3       1 <0>        -0.3625
     28 S1         -1.2869   -4.2218   -0.0593 S.3       1 <0>        -0.2320
     29 H1         -7.0815   -2.5160   -5.4777 H         1 <0>         0.1500
     30 H2         -7.9713   -3.9500   -3.6664 H         1 <0>         0.1500
     31 H3         -4.7102   -1.7906   -5.4814 H         1 <0>         0.1500
     32 H4         -6.4890   -4.6950   -1.8011 H         1 <0>         0.1500
     33 H5          5.3640   -3.8342   -1.5163 H         1 <0>         0.1500
     34 H6          5.1387   -0.4849    1.1372 H         1 <0>         0.1500
     35 H7          3.3221   -5.2151   -0.4009 H         1 <0>         0.1500
     36 H8         -0.5630   -2.8163   -1.9053 H         1 <0>         0.1500
     37 H9         -2.1517   -0.7337   -3.9163 H         1 <0>         0.0000
     38 H10        -1.0610   -2.1335   -4.1950 H         1 <0>         0.0000
     39 H11        -2.4686   -1.8621   -5.2775 H         1 <0>         0.0000
     40 H12         7.6602    0.1560   -4.7394 H         1 <0>         0.0000
     41 H13         6.3059   -0.9964   -4.5247 H         1 <0>         0.0000
     42 H14         7.9210   -1.3806   -3.8734 H         1 <0>         0.0000
     43 H15         5.0485   -4.1270    1.0990 H         1 <0>         0.0000
     44 H16         4.5948   -2.7094    2.0185 H         1 <0>         0.0000
     45 H17        -0.0614   -2.2713    1.3168 H         1 <0>         0.4500
     46 H18         1.0239   -5.5411   -0.7750 H         1 <0>         0.4500
     47 H19        -4.0197   -3.5990   -0.7310 H         1 <0>         0.4500
     48 H20        -3.6009   -4.9682   -1.6105 H         1 <0>         0.4500
@<TRIPOS>BOND
     1    1    2 ar
     2    1    3 ar
     3    2    4 ar
     4    3    8 ar
     5    4    9 ar
     6    5    7 ar
     7    5   20 ar
     8    6    7 ar
     9    6   21 ar
    10    7   19 1
    11    8    9 ar
    12    8   23 1
    13    9   25 1
    14   10   20 ar
    15   10   21 ar
    16   10   27 1
    17   11   12 2
    18   11   24 1
    19   12   13 1
    20   12   19 1
    21   13   22 am
    22   13   26 2
    23   14   16 2
    24   14   23 1
    25   14   25 1
    26   15   22 1
    27   15   24 2
    28   15   28 1
    29   16   28 1
    30   17   23 1
    31   18   27 1
    32    1   29 1
    33    2   30 1
    34    3   31 1
    35    4   32 1
    36    5   33 1
    37    6   34 1
    38   11   35 1
    39   16   36 1
    40   17   37 1
    41   17   38 1
    42   17   39 1
    43   18   40 1
    44   18   41 1
    45   18   42 1
    46   19   43 1
    47   19   44 1
    48   22   45 1
    49   24   46 1
    50   25   47 1
    51   25   48 1
