@<TRIPOS>MOLECULE
*****
   39    40     0     0     0
SMALL
USER_CHARGES

@<TRIPOS>ATOM
      1 C1         -1.5802    3.6006    1.0740 C.ar      1 <0>        -0.1500
      2 C2          0.6981    4.3267    0.7286 C.ar      1 <0>        -0.1500
      3 C3         -0.3794    3.5170    0.3692 C.ar      1 <0>        -0.1435
      4 C4         -0.6261    5.3035    2.4977 C.ar      1 <0>        -0.1710
      5 C5         -1.7035    4.4938    2.1383 C.ar      1 <0>         0.0825
      6 C6          0.5747    5.2199    1.7929 C.ar      1 <0>         0.0825
      7 C7         -0.0615    1.1416   -0.3260 C.2       1 <0>        -0.1238
      8 C8         -0.9894    0.1605   -0.3551 C.2       1 <0>         0.1767
      9 C9          1.2846    0.7184    0.2285 C.2       1 <0>         0.4856
     10 C10         0.4482   -1.5883    0.5959 C.2       1 <0>         0.5500
     11 C11        -3.0547    3.6639    3.9106 C.3       1 <0>         0.2800
     12 C12         2.5749    5.4581    3.0572 C.3       1 <0>         0.2800
     13 C13        -2.5855   -0.3726   -1.9507 C.3       1 <0>         0.2800
     14 C14        -0.2463    2.5533   -0.7791 C.3       1 <0>         0.2817
     15 N1          2.2525    1.5857    0.3017 N.2       1 <0>        -0.8500
     16 N2          0.6370   -2.8119    0.9971 N.2       1 <0>        -0.8500
     17 N3         -0.7521   -1.1319    0.0802 N.pl3     1 <0>        -0.5500
     18 N4          1.4218   -0.6028    0.6388 N.pl3     1 <0>        -0.5000
     19 O1         -0.7397    6.1261    3.4779 O.3       1 <0>        -0.8290
     20 O2         -2.8991    4.5401    2.7986 O.3       1 <0>        -0.3625
     21 O3          1.6573    5.9923    2.1079 O.3       1 <0>        -0.3625
     22 O4         -2.2553    0.4267   -0.8421 O.3       1 <0>        -0.3567
     23 H1         -2.4209    2.9699    0.7948 H         1 <0>         0.1500
     24 H2          1.6347    4.2624    0.1799 H         1 <0>         0.1500
     25 H3         -4.0477    3.7995    4.3461 H         1 <0>         0.0000
     26 H4         -2.2855    3.8800    4.6563 H         1 <0>         0.0000
     27 H5         -2.9475    2.6321    3.5679 H         1 <0>         0.0000
     28 H6          3.3885    6.1694    3.2189 H         1 <0>         0.0000
     29 H7          2.9735    4.5103    2.6866 H         1 <0>         0.0000
     30 H8          2.0509    5.2868    4.0006 H         1 <0>         0.0000
     31 H9         -3.5921   -0.1223   -2.2945 H         1 <0>         0.0000
     32 H10        -2.5372   -1.4272   -1.6680 H         1 <0>         0.0000
     33 H11        -1.8702   -0.1796   -2.7538 H         1 <0>         0.0000
     34 H12        -1.1368    2.6151   -1.4148 H         1 <0>         0.0000
     35 H13         0.5984    2.8388   -1.4155 H         1 <0>         0.0000
     36 H14         3.0740    1.1251    0.6963 H         1 <0>         0.4000
     37 H15         1.5973   -2.9008    1.3329 H         1 <0>         0.4000
     38 H16        -1.5319   -1.7765    0.0031 H         1 <0>         0.4000
     39 H17         2.3300   -0.8741    1.0072 H         1 <0>         0.4000
@<TRIPOS>BOND
     1    1    3 ar
     2    1    5 ar
     3    2    3 ar
     4    2    6 ar
     5    3   14 1
     6    4    5 ar
     7    4    6 ar
     8    4   19 1
     9    5   20 1
    10    6   21 1
    11    7    8 2
    12    7    9 1
    13    7   14 1
    14    8   17 1
    15    8   22 1
    16    9   15 2
    17    9   18 1
    18   10   16 2
    19   10   17 1
    20   10   18 1
    21   11   20 1
    22   12   21 1
    23   13   22 1
    24    1   23 1
    25    2   24 1
    26   11   25 1
    27   11   26 1
    28   11   27 1
    29   12   28 1
    30   12   29 1
    31   12   30 1
    32   13   31 1
    33   13   32 1
    34   13   33 1
    35   14   34 1
    36   14   35 1
    37   15   36 1
    38   16   37 1
    39   17   38 1
    40   18   39 1
