@<TRIPOS>MOLECULE
*****
   39    40     0     0     0
SMALL
USER_CHARGES

@<TRIPOS>ATOM
      1 C1          1.0870   -1.8185    0.3895 C.ar      1 <0>        -0.1500
      2 C2          1.5620    0.2981    1.4531 C.ar      1 <0>        -0.1500
      3 C3          0.8066   -0.4630    0.5610 C.ar      1 <0>        -0.1435
      4 C4          0.1348    1.3562   -1.0496 C.ar      1 <0>        -0.1435
      5 C5          2.8783   -1.6520    2.0022 C.ar      1 <0>        -0.1710
      6 C6          2.1229   -2.4131    1.1101 C.ar      1 <0>         0.0825
      7 C7          2.5978   -0.2964    2.1737 C.ar      1 <0>         0.0825
      8 C8          0.8369    1.2168   -2.2294 C.ar      1 <0>         0.4100
      9 C9         -0.1509    2.6531   -0.6746 C.ar      1 <0>         0.3925
     10 C10         0.8952    3.4705   -2.5197 C.ar      1 <0>         0.7200
     11 C11         3.2852   -4.0843   -0.1194 C.3       1 <0>         0.2800
     12 C12         4.4588    1.1460    2.5086 C.3       1 <0>         0.2800
     13 C13        -1.1025    4.2535    0.8049 C.3       1 <0>         0.2800
     14 C14        -0.3010    0.1726   -0.2094 C.3       1 <0>         0.2870
     15 N1          1.2345    2.2560   -2.9924 N.ar      1 <0>        -0.6200
     16 N2          0.2155    3.7378   -1.3883 N.ar      1 <0>        -0.6200
     17 N3          1.1607   -0.0910   -2.6675 N.pl3     1 <0>        -0.9000
     18 N4          1.2949    4.5823   -3.2929 N.pl3     1 <0>        -0.9000
     19 O1          3.8323   -2.1995    2.6658 O.3       1 <0>        -0.8290
     20 O2          2.3601   -3.7438    0.9086 O.3       1 <0>        -0.3625
     21 O3          3.3100    0.4895    3.0356 O.3       1 <0>        -0.3625
     22 O4         -0.8446    2.8921    0.4826 O.3       1 <0>        -0.3625
     23 H1          0.4989   -2.4130   -0.3057 H         1 <0>         0.1500
     24 H2          1.3443    1.3550    1.5876 H         1 <0>         0.1500
     25 H3          3.3838   -5.1711   -0.1765 H         1 <0>         0.0000
     26 H4          4.2556   -3.6306    0.0975 H         1 <0>         0.0000
     27 H5          2.9125   -3.7039   -1.0733 H         1 <0>         0.0000
     28 H6          4.9340    1.7377    3.2949 H         1 <0>         0.0000
     29 H7          4.1615    1.7935    1.6799 H         1 <0>         0.0000
     30 H8          5.1631    0.3935    2.1459 H         1 <0>         0.0000
     31 H9         -1.6585    4.3074    1.7441 H         1 <0>         0.0000
     32 H10        -1.6795    4.7163    0.0004 H         1 <0>         0.0000
     33 H11        -0.1510    4.7787    0.9168 H         1 <0>         0.0000
     34 H12        -0.7915   -0.5687   -0.8646 H         1 <0>         0.0000
     35 H13        -1.1093    0.4959    0.4699 H         1 <0>         0.0000
     36 H14         0.9154   -0.8665   -2.0911 H         1 <0>         0.4000
     37 H15         1.7082   -0.2002   -3.4934 H         1 <0>         0.4000
     38 H16         1.8422    4.4313   -4.1152 H         1 <0>         0.4000
     39 H17         1.1049    5.5031   -2.9547 H         1 <0>         0.4000
@<TRIPOS>BOND
     1    1    3 ar
     2    1    6 ar
     3    2    3 ar
     4    2    7 ar
     5    3   14 1
     6    4    8 ar
     7    4    9 ar
     8    4   14 1
     9    5    6 ar
    10    5    7 ar
    11    5   19 1
    12    6   20 1
    13    7   21 1
    14    8   15 ar
    15    8   17 1
    16    9   16 ar
    17    9   22 1
    18   10   15 ar
    19   10   16 ar
    20   10   18 1
    21   11   20 1
    22   12   21 1
    23   13   22 1
    24    1   23 1
    25    2   24 1
    26   11   25 1
    27   11   26 1
    28   11   27 1
    29   12   28 1
    30   12   29 1
    31   12   30 1
    32   13   31 1
    33   13   32 1
    34   13   33 1
    35   14   34 1
    36   14   35 1
    37   17   36 1
    38   17   37 1
    39   18   38 1
    40   18   39 1
