@<TRIPOS>MOLECULE
*****
   42    44     0     0     0
SMALL
USER_CHARGES

@<TRIPOS>ATOM
      1 C1         -4.2089   -4.6125   -3.0440 C.ar      1 <0>         0.1600
      2 C2         -4.5930   -3.5903   -0.5250 C.ar      1 <0>         0.1170
      3 C3         -3.2954   -3.7878   -1.0079 C.ar      1 <0>         0.0825
      4 C4         -3.0953   -4.3059   -2.2846 C.ar      1 <0>         0.1900
      5 C5         -5.6439   -3.9332   -1.3737 C.ar      1 <0>         0.3384
      6 C6         -7.0185   -3.7516   -0.9311 C.2       1 <0>        -0.1784
      7 C7         -7.2793   -3.2599    0.2815 C.2       1 <0>        -0.1356
      8 C8         -6.1895   -2.8811    1.2204 C.2       1 <0>         0.6156
      9 C9          0.6781   -3.1347   -0.0091 C.3       1 <0>         0.0000
     10 C10         0.2199   -0.6779    0.3643 C.3       1 <0>         0.0000
     11 C11         1.9645   -3.0183    0.8058 C.3       1 <0>         0.0000
     12 C12         1.5058   -0.5626    1.1801 C.3       1 <0>         0.0000
     13 C13        -0.3641   -2.0955    0.4249 C.3       1 <0>         0.0000
     14 C14         2.5421   -1.6029    0.7494 C.3       1 <0>         0.2700
     15 C15        -3.7699   -2.7074    1.6534 C.3       1 <0>         0.3001
     16 C16        -1.6202   -2.1988   -0.4384 C.3       1 <0>         0.2800
     17 N1         -5.4786   -4.4390   -2.6202 N.ar      1 <0>        -0.6200
     18 N2         -4.8771   -3.0637    0.7729 N.am      1 <0>        -0.4771
     19 N3          3.7296   -1.5085    1.5634 N.3       1 <0>        -0.9900
     20 O1         -6.5136   -2.4348    2.3217 O.2       1 <0>        -0.5700
     21 O2         -2.1556   -3.5013   -0.2975 O.3       1 <0>        -0.3625
     22 F1         -1.8637   -4.5056   -2.7702 F         1 <0>        -0.1900
     23 H1         -4.1060   -5.0187   -4.0442 H         1 <0>         0.1500
     24 H2         -7.8225   -4.0233   -1.6062 H         1 <0>         0.1500
     25 H3         -8.3013   -3.1214    0.6173 H         1 <0>         0.1500
     26 H4          0.9133   -3.0068   -1.0736 H         1 <0>         0.0000
     27 H5          0.2681   -4.1454    0.1054 H         1 <0>         0.0000
     28 H6         -0.5132    0.0449    0.7419 H         1 <0>         0.0000
     29 H7          0.4283   -0.4036   -0.6779 H         1 <0>         0.0000
     30 H8          1.7527   -3.2994    1.8461 H         1 <0>         0.0000
     31 H9          2.6978   -3.7409    0.4266 H         1 <0>         0.0000
     32 H10         1.9152    0.4487    1.0656 H         1 <0>         0.0000
     33 H11         1.2644   -0.6869    2.2441 H         1 <0>         0.0000
     34 H12        -0.6509   -2.3068    1.4637 H         1 <0>         0.0000
     35 H13         2.8283   -1.3905   -0.2956 H         1 <0>         0.0000
     36 H14        -3.4905   -1.6569    1.4853 H         1 <0>         0.0000
     37 H15        -4.0769   -2.8419    2.7011 H         1 <0>         0.0000
     38 H16        -2.9073   -3.3551    1.4381 H         1 <0>         0.0000
     39 H17        -1.3665   -2.0231   -1.4831 H         1 <0>         0.0000
     40 H18        -2.3570   -1.4672   -0.1090 H         1 <0>         0.0000
     41 H19         3.5828   -0.8001    2.2418 H         1 <0>         0.3600
     42 H20         3.8754   -2.3880    1.9981 H         1 <0>         0.3600
@<TRIPOS>BOND
     1    1    4 ar
     2    1   17 ar
     3    2    3 ar
     4    2    5 ar
     5    2   18 1
     6    3    4 ar
     7    3   21 1
     8    4   22 1
     9    5    6 1
    10    5   17 ar
    11    6    7 2
    12    7    8 1
    13    8   18 am
    14    8   20 2
    15    9   11 1
    16    9   13 1
    17   10   12 1
    18   10   13 1
    19   11   14 1
    20   12   14 1
    21   13   16 1
    22   14   19 1
    23   15   18 1
    24   16   21 1
    25    1   23 1
    26    6   24 1
    27    7   25 1
    28    9   26 1
    29    9   27 1
    30   10   28 1
    31   10   29 1
    32   11   30 1
    33   11   31 1
    34   12   32 1
    35   12   33 1
    36   13   34 1
    37   14   35 1
    38   15   36 1
    39   15   37 1
    40   15   38 1
    41   16   39 1
    42   16   40 1
    43   19   41 1
    44   19   42 1
