@<TRIPOS>MOLECULE
*****
   41    42     0     0     0
SMALL
USER_CHARGES

@<TRIPOS>ATOM
      1 C1          3.7662    0.0426   -3.1636 C.ar      1 <0>        -0.1500
      2 C2          3.3594    0.6329   -0.8565 C.ar      1 <0>        -0.1500
      3 C3          2.9639   -0.0194   -2.0243 C.ar      1 <0>        -0.1435
      4 C4          4.9641    0.7566   -3.1350 C.ar      1 <0>        -0.1435
      5 C5          4.5572    1.3470   -0.8279 C.ar      1 <0>        -0.1435
      6 C6          5.3596    1.4089   -1.9672 C.ar      1 <0>        -0.1710
      7 C7          1.4591   -2.1326    0.0745 C.2       1 <0>         0.3256
      8 C8          1.7761   -2.1129   -1.3660 C.2       1 <0>        -0.1238
      9 C9          2.1304   -3.3076   -1.9148 C.2       1 <0>        -0.4000
     10 C10         1.9379   -4.5251    0.0215 C.2       1 <0>         0.5590
     11 C11         5.7823    0.7864   -4.3909 C.3       1 <0>         0.1435
     12 C12         3.8447    1.7828    1.5487 C.3       1 <0>         0.0000
     13 C13         5.0640    3.5646    0.2547 C.3       1 <0>         0.0000
     14 C14         6.2778    1.5611    1.0877 C.3       1 <0>         0.0000
     15 C15         1.6719   -0.7896   -2.0550 C.3       1 <0>         0.2817
     16 C16         4.9276    2.0263    0.4561 C.3       1 <0>         0.1435
     17 N1          2.2245   -4.5156   -1.2798 N.2       1 <0>        -0.5800
     18 N2          2.4540   -3.4762   -3.2240 N.2       1 <0>        -0.9500
     19 N3          2.0057   -5.6295    0.6877 N.2       1 <0>        -0.8500
     20 N4          1.5160   -3.2087    0.7627 N.pl3     1 <0>        -0.1290
     21 O1          6.4627    2.0667   -1.9410 O.3       1 <0>        -0.8290
     22 H1          3.4556   -0.4666   -4.0731 H         1 <0>         0.1500
     23 H2          2.7319    0.5832    0.0306 H         1 <0>         0.1500
     24 H3          1.1663   -1.1974    0.5722 H         1 <0>         0.0600
     25 H4          5.4889    1.6407   -5.0085 H         1 <0>         0.0000
     26 H5          6.8497    0.8661   -4.1600 H         1 <0>         0.0000
     27 H6          5.6438   -0.1331   -4.9692 H         1 <0>         0.0000
     28 H7          4.0917    2.2697    2.4993 H         1 <0>         0.0000
     29 H8          2.8657    2.1645    1.2387 H         1 <0>         0.0000
     30 H9          3.7328    0.7094    1.7427 H         1 <0>         0.0000
     31 H10         5.3346    4.0713    1.1875 H         1 <0>         0.0000
     32 H11         5.8309    3.8241   -0.4846 H         1 <0>         0.0000
     33 H12         4.1134    3.9906   -0.0872 H         1 <0>         0.0000
     34 H13         6.5043    2.0859    2.0237 H         1 <0>         0.0000
     35 H14         6.2548    0.4894    1.3174 H         1 <0>         0.0000
     36 H15         7.1148    1.7462    0.4043 H         1 <0>         0.0000
     37 H16         0.8802   -0.1988   -1.5818 H         1 <0>         0.0000
     38 H17         1.3516   -0.9503   -3.0897 H         1 <0>         0.0000
     39 H18         1.6856   -3.9770   -3.6528 H         1 <0>         0.1500
     40 H19         1.7541   -5.4492    1.6642 H         1 <0>         0.4000
     41 H20         1.3001   -3.2451    1.7591 H         1 <0>         0.4000
@<TRIPOS>BOND
     1    1    3 ar
     2    1    4 ar
     3    2    3 ar
     4    2    5 ar
     5    3   15 1
     6    4    6 ar
     7    4   11 1
     8    5    6 ar
     9    5   16 1
    10    6   21 1
    11    7    8 1
    12    7   20 2
    13    8    9 2
    14    8   15 1
    15    9   17 1
    16    9   18 1
    17   10   17 1
    18   10   19 2
    19   10   20 1
    20   12   16 1
    21   13   16 1
    22   14   16 1
    23    1   22 1
    24    2   23 1
    25    7   24 1
    26   11   25 1
    27   11   26 1
    28   11   27 1
    29   12   28 1
    30   12   29 1
    31   12   30 1
    32   13   31 1
    33   13   32 1
    34   13   33 1
    35   14   34 1
    36   14   35 1
    37   14   36 1
    38   15   37 1
    39   15   38 1
    40   18   39 1
    41   19   40 1
    42   20   41 1
