@<TRIPOS>MOLECULE
*****
   30    31     0     0     0
SMALL
USER_CHARGES

@<TRIPOS>ATOM
      1 C1          1.2426    2.5792    7.1828 C.ar      1 <0>        -0.1500
      2 C2          1.5295    3.9433    7.1342 C.ar      1 <0>        -0.1500
      3 C3          0.5545    1.9733    6.1315 C.ar      1 <0>        -0.1500
      4 C4          0.4403    4.0958    4.9830 C.ar      1 <0>        -0.1500
      5 C5          1.1284    4.7016    6.0344 C.ar      1 <0>        -0.1435
      6 C6          0.1534    2.7316    5.0316 C.ar      1 <0>         0.1790
      7 C7          1.8370    0.6051    0.9363 C.2       1 <0>        -0.1500
      8 C8          0.4016    0.4973    0.8789 C.2       1 <0>        -0.1500
      9 C9          2.4539    1.1949    1.9664 C.2       1 <0>        -0.2882
     10 C10        -0.4026    0.9739    1.8389 C.2       1 <0>         0.0288
     11 C11         0.2010    1.6470    3.0227 C.2       1 <0>         0.3746
     12 C12        -1.8463    0.7979    1.6569 C.2       1 <0>         0.7056
     13 C13         1.7180    1.7821    3.1262 C.3       1 <0>         0.1992
     14 C14         1.4352    6.1602    5.9821 C.3       1 <0>         1.1635
     15 N1         -0.5389    2.1224    3.9745 N.2       1 <0>        -0.6290
     16 O1         -2.3571   -0.1275    1.0532 O.2       1 <0>        -0.5700
     17 O2         -2.5043    1.8115    2.2569 O.3       1 <0>        -0.6500
     18 F1          2.1121    6.6169    7.0771 F         1 <0>        -0.3400
     19 F2          2.2052    6.5190    4.9125 F         1 <0>        -0.3400
     20 F3          0.3115    6.9305    5.8990 F         1 <0>        -0.3400
     21 H1          1.5554    1.9887    8.0390 H         1 <0>         0.1500
     22 H2          2.0668    4.4069    7.9577 H         1 <0>         0.1500
     23 H3          0.3354    0.9097    6.1783 H         1 <0>         0.1500
     24 H4          0.1282    4.6871    4.1250 H         1 <0>         0.1500
     25 H5          2.4095    0.1909    0.1135 H         1 <0>         0.1500
     26 H6          0.0001    0.0000    0.0001 H         1 <0>         0.1500
     27 H7          3.5382    1.2565    1.9726 H         1 <0>         0.1500
     28 H8          2.0409    1.2886    4.0499 H         1 <0>         0.0000
     29 H9          1.9602    2.8477    3.2082 H         1 <0>         0.0000
     30 H10        -3.4764    1.7280    2.1559 H         1 <0>         0.5000
@<TRIPOS>BOND
     1    1    2 ar
     2    1    3 ar
     3    2    5 ar
     4    3    6 ar
     5    4    5 ar
     6    4    6 ar
     7    5   14 1
     8    6   15 1
     9    7    8 1
    10    7    9 2
    11    8   10 2
    12    9   13 1
    13   10   11 1
    14   10   12 1
    15   11   13 1
    16   11   15 2
    17   12   16 2
    18   12   17 1
    19   14   18 1
    20   14   19 1
    21   14   20 1
    22    1   21 1
    23    2   22 1
    24    3   23 1
    25    4   24 1
    26    7   25 1
    27    8   26 1
    28    9   27 1
    29   13   28 1
    30   13   29 1
    31   17   30 1
