@<TRIPOS>MOLECULE
*****
   26    27     0     0     0
SMALL
USER_CHARGES

@<TRIPOS>ATOM
      1 C1          0.7450    1.9946    0.0764 C.ar      1 <0>        -0.1500
      2 C2          2.1168   -0.3882   -0.4425 C.ar      1 <0>        -0.1500
      3 C3          0.0531    0.7791    0.0754 C.ar      1 <0>         0.0862
      4 C4          0.7408   -0.4345   -0.1872 C.ar      1 <0>         0.1790
      5 C5          2.1166    2.0131   -0.1817 C.ar      1 <0>         0.0825
      6 C6          2.8005    0.8274   -0.4402 C.ar      1 <0>         0.0825
      7 C7         -1.4209    0.6915    0.3451 C.2       1 <0>         0.4138
      8 C8         -1.1664   -1.7064    0.0338 C.2       1 <0>         0.7090
      9 C9          3.3292    3.6355    1.0647 C.3       1 <0>         0.2800
     10 C10         4.5396    0.9825   -2.0550 C.3       1 <0>         0.2800
     11 N1          0.1082   -1.7058   -0.2066 N.2       1 <0>        -0.6290
     12 N2         -2.1107    1.7593    0.5945 N.2       1 <0>        -0.8500
     13 N3         -1.9224   -0.5939    0.2987 N.pl3     1 <0>        -0.5000
     14 O1          2.7790    3.2045   -0.1781 O.3       1 <0>        -0.3625
     15 O2          4.1392    0.8415   -0.6935 O.3       1 <0>        -0.3625
     16 Cl1        -2.0041   -3.1989    0.0284 Cl        1 <0>        -0.2090
     17 H1          0.2286    2.9299    0.2752 H         1 <0>         0.1500
     18 H2          2.6606   -1.3084   -0.6467 H         1 <0>         0.1500
     19 H3          3.8292    4.5975    0.9286 H         1 <0>         0.0000
     20 H4          4.0419    2.8902    1.4266 H         1 <0>         0.0000
     21 H5          2.5211    3.7471    1.7915 H         1 <0>         0.0000
     22 H6          5.6305    0.9786   -2.1170 H         1 <0>         0.0000
     23 H7          4.1445    1.9190   -2.4567 H         1 <0>         0.0000
     24 H8          4.1411    0.1442   -2.6314 H         1 <0>         0.0000
     25 H9         -3.0869    1.4956    0.7503 H         1 <0>         0.4000
     26 H10        -2.9154   -0.7234    0.4718 H         1 <0>         0.4000
@<TRIPOS>BOND
     1    1    3 ar
     2    1    5 ar
     3    2    4 ar
     4    2    6 ar
     5    3    4 ar
     6    3    7 1
     7    4   11 1
     8    5    6 ar
     9    5   14 1
    10    6   15 1
    11    7   12 2
    12    7   13 1
    13    8   11 2
    14    8   13 1
    15    8   16 1
    16    9   14 1
    17   10   15 1
    18    1   17 1
    19    2   18 1
    20    9   19 1
    21    9   20 1
    22    9   21 1
    23   10   22 1
    24   10   23 1
    25   10   24 1
    26   12   25 1
    27   13   26 1
