@<TRIPOS>MOLECULE
*****
   46    49     0     0     0
SMALL
USER_CHARGES

@<TRIPOS>ATOM
      1 C1          1.1226    0.0809   -5.6497 C.ar      1 <0>        -0.1500
      2 C2          0.0679   -0.5041   -6.3795 C.ar      1 <0>        -0.1500
      3 C3          1.0699    0.1787   -4.2570 C.ar      1 <0>        -0.1500
      4 C4         -1.0682   -1.0067   -5.7363 C.ar      1 <0>        -0.1500
      5 C5         -2.0358   -1.9663    5.9256 C.ar      1 <0>         0.1600
      6 C6         -3.2800   -0.0129    6.2295 C.ar      1 <0>         0.1600
      7 C7         -3.2293   -1.3003    5.7351 C.ar      1 <0>        -0.1435
      8 C8         -0.0518   -0.3179   -3.6322 C.ar      1 <0>         0.1000
      9 C9         -1.1205   -0.9093   -4.3615 C.ar      1 <0>         0.1000
     10 C10        -1.1419   -0.1653    6.9859 C.ar      1 <0>         0.7025
     11 C11        -3.6544   -2.9789    2.8803 C.2       1 <0>        -0.0500
     12 C12        -4.2303   -1.9711    3.5499 C.2       1 <0>        -0.1238
     13 C13        -4.7341   -0.8007    2.7364 C.2       1 <0>         0.7666
     14 C14        -1.6284   -0.9672   -2.1601 C.2       1 <0>         0.2000
     15 C15        -3.9922   -1.8828    0.8246 C.2       1 <0>         0.6410
     16 C16        -2.2469   -1.1738   -0.9872 C.2       1 <0>        -0.0490
     17 C17        -3.3215   -1.9639   -3.8530 C.3       1 <0>         0.3691
     18 C18         1.0966   -0.3782    7.7602 C.3       1 <0>         0.2800
     19 C19        -4.3993   -1.9362    5.0327 C.3       1 <0>         0.2817
     20 N1         -0.9677   -1.4271    6.5490 N.ar      1 <0>        -0.6200
     21 N2         -2.2514    0.5880    6.8627 N.ar      1 <0>        -0.6200
     22 N3         -4.5684   -0.8458    1.3565 N.2       1 <0>        -0.6610
     23 N4         -0.3788   -0.3598   -2.2743 N.pl3     1 <0>        -0.6000
     24 N5         -3.5230   -2.9604    1.5248 N.pl3     1 <0>        -0.5500
     25 N6         -2.1042   -1.3111   -3.4401 N.pl3     1 <0>        -0.5691
     26 O1         -5.2689    0.1453    3.3098 O.2       1 <0>        -0.5700
     27 O2         -0.0734    0.4160    7.6281 O.3       1 <0>        -0.3625
     28 S1         -3.7924   -1.9283   -0.8843 S.3       1 <0>        -0.2420
     29 H1          1.9907    0.4619   -6.1818 H         1 <0>         0.1500
     30 H2          0.1407   -0.5637   -7.4627 H         1 <0>         0.1500
     31 H3          1.8824    0.6287   -3.6987 H         1 <0>         0.1500
     32 H4         -1.8711   -1.4533   -6.3116 H         1 <0>         0.1500
     33 H5         -1.8942   -2.9830    5.5728 H         1 <0>         0.1500
     34 H6         -4.1742    0.5948    6.1307 H         1 <0>         0.1500
     35 H7         -3.2574   -3.8658    3.3573 H         1 <0>         0.1500
     36 H8         -1.7667   -0.8601   -0.0702 H         1 <0>         0.1500
     37 H9         -3.1680   -3.0530   -3.8657 H         1 <0>         0.0000
     38 H10        -4.1281   -1.7156   -3.1474 H         1 <0>         0.0000
     39 H11        -3.5977   -1.6209   -4.8610 H         1 <0>         0.0000
     40 H12         1.8678    0.1920    8.2839 H         1 <0>         0.0000
     41 H13         1.4538   -0.6699    6.7694 H         1 <0>         0.0000
     42 H14         0.8548   -1.2744    8.3366 H         1 <0>         0.0000
     43 H15        -4.5390   -2.9575    5.4059 H         1 <0>         0.0000
     44 H16        -5.3225   -1.3985    5.2768 H         1 <0>         0.0000
     45 H17         0.1700   -0.0235   -1.5023 H         1 <0>         0.4000
     46 H18        -3.0792   -3.7503    1.0713 H         1 <0>         0.4000
@<TRIPOS>BOND
     1    1    2 ar
     2    1    3 ar
     3    2    4 ar
     4    3    8 ar
     5    4    9 ar
     6    5    7 ar
     7    5   20 ar
     8    6    7 ar
     9    6   21 ar
    10    7   19 1
    11    8    9 ar
    12    8   23 1
    13    9   25 1
    14   10   20 ar
    15   10   21 ar
    16   10   27 1
    17   11   12 2
    18   11   24 1
    19   12   13 1
    20   12   19 1
    21   13   22 1
    22   13   26 2
    23   14   16 2
    24   14   23 1
    25   14   25 1
    26   15   22 2
    27   15   24 1
    28   15   28 1
    29   16   28 1
    30   17   25 1
    31   18   27 1
    32    1   29 1
    33    2   30 1
    34    3   31 1
    35    4   32 1
    36    5   33 1
    37    6   34 1
    38   11   35 1
    39   16   36 1
    40   17   37 1
    41   17   38 1
    42   17   39 1
    43   18   40 1
    44   18   41 1
    45   18   42 1
    46   19   43 1
    47   19   44 1
    48   23   45 1
    49   24   46 1
