@<TRIPOS>MOLECULE
*****
   18    19     0     0     0
SMALL
USER_CHARGES

@<TRIPOS>ATOM
      1 C1         -0.3862    0.1803    1.0001 C.ar      1 <0>        -0.1500
      2 C2         -1.5128   -0.5251    1.4379 C.ar      1 <0>        -0.1500
      3 C3         -0.2252    1.3626    3.1155 C.ar      1 <0>        -0.1500
      4 C4         -1.3539    0.6571    3.5562 C.ar      1 <0>         0.3330
      5 C5          0.2482    1.1093    1.8244 C.ar      1 <0>        -0.1710
      6 C6         -1.9840   -0.2678    2.7329 C.ar      1 <0>         0.0400
      7 C7         -3.0087    0.0020    4.9658 C.2       1 <0>         0.1940
      8 C8         -3.8186   -0.0515    6.1901 C.3       1 <0>         0.1800
      9 N1         -1.9586    0.7732    4.7874 N.pl3     1 <0>        -0.1170
     10 O1          1.2788    1.7391    1.3950 O.3       1 <0>        -0.8290
     11 S1         -3.3270   -0.9472    3.5801 S.3       1 <0>        -0.0800
     12 H1         -0.0203   -0.0199   -0.0067 H         1 <0>         0.1500
     13 H2         -2.0004   -1.2470    0.7905 H         1 <0>         0.1500
     14 H3          0.2555    2.0824    3.7739 H         1 <0>         0.1500
     15 H4         -4.6496    0.6760    6.1574 H         1 <0>         0.0000
     16 H5         -4.2625   -1.0507    6.3579 H         1 <0>         0.0000
     17 H6         -3.2249    0.1675    7.0974 H         1 <0>         0.0000
     18 H7         -1.6854    1.3800    5.5577 H         1 <0>         0.4500
@<TRIPOS>BOND
     1    1    2 ar
     2    1    5 ar
     3    2    6 ar
     4    3    4 ar
     5    3    5 ar
     6    4    6 ar
     7    4    9 1
     8    5   10 1
     9    6   11 1
    10    7    8 1
    11    7    9 2
    12    7   11 1
    13    1   12 1
    14    2   13 1
    15    3   14 1
    16    8   15 1
    17    8   16 1
    18    8   17 1
    19    9   18 1
