@<TRIPOS>MOLECULE
*****
   26    28     0     0     0
SMALL
USER_CHARGES

@<TRIPOS>ATOM
      1 C1          5.0768   -3.2788   -4.0304 C.ar      1 <0>        -0.1500
      2 C2          5.4514   -2.7092   -2.8136 C.ar      1 <0>        -0.1500
      3 C3          3.7344   -3.5596   -4.2852 C.ar      1 <0>        -0.1500
      4 C4          4.4838   -2.4204   -1.8514 C.ar      1 <0>        -0.1500
      5 C5          2.7667   -3.2709   -3.3230 C.ar      1 <0>        -0.1500
      6 C6          0.5284   -0.9424   -0.0724 C.ar      1 <0>        -0.1500
      7 C7          3.1414   -2.7012   -2.1061 C.ar      1 <0>         0.0000
      8 C8          0.2997   -1.9826    0.7962 C.ar      1 <0>         0.0862
      9 C9          1.4836   -1.1632   -1.0597 C.ar      1 <0>         0.1770
     10 C10         2.1368   -2.4010   -1.1068 C.ar      1 <0>         0.3100
     11 C11         0.9927   -3.1984    0.6901 C.ar      1 <0>         0.4100
     12 C12        -0.6069   -2.1411    1.9480 C.2       1 <0>         0.4138
     13 N1          1.9167   -3.4348   -0.2521 N.ar      1 <0>        -0.6200
     14 N2         -1.4056   -1.2127    2.3444 N.2       1 <0>        -0.8500
     15 N3          0.5393   -4.0563    1.7167 N.pl3     1 <0>        -0.5000
     16 N4         -0.3988   -3.4162    2.4433 N.pl3     1 <0>        -0.4500
     17 Cl1         1.8197    0.1023   -2.1836 Cl        1 <0>        -0.1770
     18 H1          5.8302   -3.5020   -4.7801 H         1 <0>         0.1500
     19 H2          6.4964   -2.4890   -2.6158 H         1 <0>         0.1500
     20 H3          3.4418   -4.0019   -5.2330 H         1 <0>         0.1500
     21 H4          4.7917   -1.9762   -0.9077 H         1 <0>         0.1500
     22 H5          1.7241   -3.4947   -3.5359 H         1 <0>         0.1500
     23 H6         -0.0088   -0.0050    0.0131 H         1 <0>         0.1500
     24 H7         -1.9365   -1.5441    3.1571 H         1 <0>         0.4000
     25 H8          0.8627   -4.9955    1.8832 H         1 <0>         0.4000
     26 H9         -0.8650   -3.8415    3.2344 H         1 <0>         0.4000
@<TRIPOS>BOND
     1    1    2 ar
     2    1    3 ar
     3    2    4 ar
     4    3    5 ar
     5    4    7 ar
     6    5    7 ar
     7    6    8 ar
     8    6    9 ar
     9    7   10 1
    10    8   11 ar
    11    8   12 1
    12    9   10 ar
    13    9   17 1
    14   10   13 ar
    15   11   13 ar
    16   11   15 1
    17   12   14 2
    18   12   16 1
    19   15   16 1
    20    1   18 1
    21    2   19 1
    22    3   20 1
    23    4   21 1
    24    5   22 1
    25    6   23 1
    26   14   24 1
    27   15   25 1
    28   16   26 1
