@<TRIPOS>MOLECULE
*****
   30    31     0     0     0
SMALL
USER_CHARGES

@<TRIPOS>ATOM
      1 C1          1.8851   -1.0363   -0.1124 C.ar      1 <0>        -0.1500
      2 C2          0.8066   -0.4630    0.5610 C.ar      1 <0>        -0.1500
      3 C3         -0.1946    2.2720    5.9131 C.ar      1 <0>        -0.1500
      4 C4          2.9210   -1.6309    0.6081 C.ar      1 <0>        -0.1500
      5 C5          0.7638   -0.4841    1.9551 C.ar      1 <0>        -0.1500
      6 C6         -0.9266    1.1193    5.6286 C.ar      1 <0>        -0.1500
      7 C7          1.1663    2.3260    5.6118 C.ar      1 <0>        -0.1500
      8 C8          2.8783   -1.6520    2.0022 C.ar      1 <0>         0.0284
      9 C9          1.7997   -1.0786    2.6757 C.ar      1 <0>         0.3640
     10 C10         1.0631    0.0744    4.7418 C.ar      1 <0>         0.3640
     11 C11        -0.2978    0.0205    5.0430 C.ar      1 <0>         0.1770
     12 C12         1.7952    1.2272    5.0262 C.ar      1 <0>         0.1770
     13 C13         3.9772   -2.2812    2.7238 C.2       1 <0>        -0.1784
     14 C14         4.0624   -3.5806    3.1264 C.2       1 <0>        -0.0733
     15 N1          1.7263   -1.0847    4.1239 N.4       1 <0>        -0.6280
     16 O1          5.0146   -4.1296    3.7527 O.3       1 <0>        -0.8500
     17 O2          2.9192   -4.3110    2.7424 O.3       1 <0>        -0.5267
     18 Cl1        -1.2436   -1.3855    4.7083 Cl        1 <0>        -0.1770
     19 Cl2         3.4816    1.3393    4.6697 Cl        1 <0>        -0.1770
     20 H1          1.9183   -1.0194   -1.1979 H         1 <0>         0.1500
     21 H2          0.0002   -0.0000   -0.0002 H         1 <0>         0.1500
     22 H3         -0.6844    3.1277    6.3693 H         1 <0>         0.1500
     23 H4          3.7543   -2.0732    0.0672 H         1 <0>         0.1500
     24 H5         -0.0814   -0.0341    2.4694 H         1 <0>         0.1500
     25 H6         -1.9864    1.0938    5.8696 H         1 <0>         0.1500
     26 H7          1.7220    3.2320    5.8399 H         1 <0>         0.1500
     27 H8          4.8024   -1.6057    2.9776 H         1 <0>         0.1500
     28 H9          1.2380   -1.9397    4.4421 H         1 <0>         0.4500
     29 H10         2.6804   -1.1551    4.5185 H         1 <0>         0.4500
     30 H11         3.0707   -5.2150    3.0698 H         1 <0>         0.4500
@<TRIPOS>BOND
     1    1    2 ar
     2    1    4 ar
     3    2    5 ar
     4    3    6 ar
     5    3    7 ar
     6    4    8 ar
     7    5    9 ar
     8    6   11 ar
     9    7   12 ar
    10    8    9 ar
    11    8   13 1
    12    9   15 1
    13   10   11 ar
    14   10   12 ar
    15   10   15 1
    16   11   18 1
    17   12   19 1
    18   13   14 2
    19   14   16 1
    20   14   17 1
    21    1   20 1
    22    2   21 1
    23    3   22 1
    24    4   23 1
    25    5   24 1
    26    6   25 1
    27    7   26 1
    28   13   27 1
    29   15   28 1
    30   15   29 1
    31   17   30 1
