@<TRIPOS>MOLECULE
*****
   30    31     0     0     0
SMALL
USER_CHARGES

@<TRIPOS>ATOM
      1 C1          1.0634   -3.7085   -3.0111 C.ar      1 <0>        -0.1500
      2 C2          0.2494   -4.7343   -2.5306 C.ar      1 <0>        -0.1500
      3 C3          0.6914   -2.3772   -2.8240 C.ar      1 <0>        -0.1500
      4 C4         -1.3087   -3.0975   -1.6760 C.ar      1 <0>        -0.1500
      5 C5         -0.9367   -4.4287   -1.8631 C.ar      1 <0>        -0.1435
      6 C6         -0.4947   -2.0717   -2.1565 C.ar      1 <0>         0.1790
      7 C7         -0.8019    1.2375   -0.6161 C.2       1 <0>        -0.1356
      8 C8         -0.3864    1.8580    0.4927 C.2       1 <0>        -0.2882
      9 C9          0.7962   -0.2142    1.2449 C.2       1 <0>        -0.2882
     10 C10         0.3973   -0.8683    0.1460 C.2       1 <0>         0.0288
     11 C11        -0.4415   -0.1806   -0.8777 C.2       1 <0>         0.4212
     12 C12         0.8445   -2.2631    0.0425 C.2       1 <0>         0.7056
     13 C13         0.4545    1.2124    1.5457 C.3       1 <0>         0.2764
     14 C14        -1.8072   -5.5253   -1.3492 C.3       1 <0>         1.1635
     15 N1         -0.8691   -0.7325   -1.9686 N.2       1 <0>        -0.6290
     16 O1          1.8817   -2.6141   -0.4858 O.2       1 <0>        -0.5700
     17 O2         -0.0681   -3.0713    0.6185 O.3       1 <0>        -0.6500
     18 F1         -1.3198   -6.7759   -1.6030 F         1 <0>        -0.3400
     19 F2         -1.9966   -5.4848    0.0029 F         1 <0>        -0.3400
     20 F3         -3.0580   -5.5023   -1.8949 F         1 <0>        -0.3400
     21 H1          1.9871   -3.9465   -3.5305 H         1 <0>         0.1500
     22 H2          0.5475   -5.7688   -2.6803 H         1 <0>         0.1500
     23 H3          1.3321   -1.5848   -3.2020 H         1 <0>         0.1500
     24 H4         -2.2333   -2.8593   -1.1547 H         1 <0>         0.1500
     25 H5         -1.4104    1.7549   -1.3497 H         1 <0>         0.1500
     26 H6         -0.6687    2.8955    0.6499 H         1 <0>         0.1500
     27 H7          1.4094   -0.7128    1.9926 H         1 <0>         0.1500
     28 H8          1.3831    1.7833    1.6583 H         1 <0>         0.0000
     29 H9         -0.0776    1.2559    2.5027 H         1 <0>         0.0000
     30 H10         0.1968   -4.0145    0.5686 H         1 <0>         0.5000
@<TRIPOS>BOND
     1    1    2 ar
     2    1    3 ar
     3    2    5 ar
     4    3    6 ar
     5    4    5 ar
     6    4    6 ar
     7    5   14 1
     8    6   15 1
     9    7    8 2
    10    7   11 1
    11    8   13 1
    12    9   10 2
    13    9   13 1
    14   10   11 1
    15   10   12 1
    16   11   15 2
    17   12   16 2
    18   12   17 1
    19   14   18 1
    20   14   19 1
    21   14   20 1
    22    1   21 1
    23    2   22 1
    24    3   23 1
    25    4   24 1
    26    7   25 1
    27    8   26 1
    28    9   27 1
    29   13   28 1
    30   13   29 1
    31   17   30 1
