@<TRIPOS>MOLECULE
*****
   26    28     0     0     0
SMALL
USER_CHARGES

@<TRIPOS>ATOM
      1 C1         -6.0429   -0.9552    0.8947 C.ar      1 <0>        -0.1500
      2 C2         -5.5454   -0.8066   -0.3998 C.ar      1 <0>        -0.1500
      3 C3         -5.1855   -0.8401    1.9890 C.ar      1 <0>        -0.1500
      4 C4         -4.1904   -0.5430   -0.6003 C.ar      1 <0>        -0.1500
      5 C5         -3.8305   -0.5765    1.7886 C.ar      1 <0>        -0.1500
      6 C6         -3.3329   -0.4279    0.4940 C.ar      1 <0>         0.0284
      7 C7          0.0132    1.3242    0.0149 C.2       1 <0>        -0.1500
      8 C8         -1.9184   -0.1528    0.2853 C.2       1 <0>         0.0716
      9 C9          0.8341    0.2798   -0.1226 C.2       1 <0>         0.0288
     10 C10        -1.4196    1.1085    0.2281 C.2       1 <0>         0.1400
     11 C11         0.2674   -1.1043   -0.0553 C.2       1 <0>         0.4856
     12 C12         2.2713    0.0673   -0.3419 C.2       1 <0>         0.4856
     13 N1          1.2081   -2.0107   -0.2085 N.2       1 <0>        -0.4920
     14 N2          3.1609    0.9853   -0.4652 N.2       1 <0>        -0.8500
     15 N3         -1.0848   -1.2579    0.1460 N.pl3     1 <0>        -0.5500
     16 N4          2.3915   -1.3085   -0.3775 N.pl3     1 <0>        -0.4080
     17 Cl1        -2.4012    2.5235    0.3952 Cl        1 <0>        -0.1400
     18 H1         -7.0981   -1.1592    1.0508 H         1 <0>         0.1500
     19 H2         -6.2130   -0.8951   -1.2520 H         1 <0>         0.1500
     20 H3         -5.5730   -0.9546    2.9970 H         1 <0>         0.1500
     21 H4         -3.8173   -0.4298   -1.6154 H         1 <0>         0.1500
     22 H5         -3.1748   -0.4896    2.6517 H         1 <0>         0.1500
     23 H6          0.3942    2.3388   -0.0288 H         1 <0>         0.1500
     24 H7          4.0817    0.5543   -0.6091 H         1 <0>         0.4000
     25 H8         -1.5068   -2.1788    0.1973 H         1 <0>         0.4000
     26 H9          3.2654   -1.8024   -0.5162 H         1 <0>         0.4000
@<TRIPOS>BOND
     1    1    2 ar
     2    1    3 ar
     3    2    4 ar
     4    3    5 ar
     5    4    6 ar
     6    5    6 ar
     7    6    8 1
     8    7    9 2
     9    7   10 1
    10    8   10 2
    11    8   15 1
    12    9   11 1
    13    9   12 1
    14   10   17 1
    15   11   13 2
    16   11   15 1
    17   12   14 2
    18   12   16 1
    19   13   16 1
    20    1   18 1
    21    2   19 1
    22    3   20 1
    23    4   21 1
    24    5   22 1
    25    7   23 1
    26   14   24 1
    27   15   25 1
    28   16   26 1
