@<TRIPOS>MOLECULE
*****
   38    40     0     0     0
SMALL
USER_CHARGES

@<TRIPOS>ATOM
      1 C1          5.9054    3.6241   -4.0326 C.ar      1 <0>        -0.1090
      2 C2          5.5566    3.5146   -5.3863 C.ar      1 <0>        -0.1500
      3 C3          3.1852    3.9897   -4.9419 C.ar      1 <0>        -0.1090
      4 C4          4.8605    3.9183   -3.1646 C.ar      1 <0>         0.3090
      5 C5          3.5463    4.0950   -3.6039 C.ar      1 <0>         0.3090
      6 C6          4.2289    3.6931   -5.8301 C.ar      1 <0>         0.1110
      7 C7          3.5875    4.3657   -1.3972 C.cat     1 <0>         1.0700
      8 C8         -1.0189    0.9668   -2.4380 C.3       1 <0>         0.0000
      9 C9          0.4518    0.8634   -2.0475 C.3       1 <0>         0.0000
     10 C10        -1.6579    2.2390   -1.8908 C.3       1 <0>         0.0000
     11 C11         1.2361    2.1074   -2.4688 C.3       1 <0>         0.0000
     12 C12        -0.8807    3.4865   -2.3141 C.3       1 <0>         0.0000
     13 C13         0.6065    3.4027   -1.9336 C.3       1 <0>         0.2800
     14 C14         1.3682    4.6222   -2.4559 C.3       1 <0>         0.5140
     15 N1          4.8345    4.0952   -1.7964 N.pl3     1 <0>        -0.8667
     16 N2          2.7989    4.3692   -2.4770 N.pl3     1 <0>        -0.9307
     17 N3          3.2042    4.5954   -0.1126 N.pl3     1 <0>        -0.8367
     18 O1          0.7231    3.3934   -0.5077 O.3       1 <0>        -0.6800
     19 Br1         3.8440    3.5276   -7.6782 Br        1 <0>        -0.1110
     20 H1          6.9194    3.4899   -3.6790 H         1 <0>         0.1500
     21 H2          6.3436    3.2854   -6.1031 H         1 <0>         0.1500
     22 H3          2.1596    4.1313   -5.2583 H         1 <0>         0.1500
     23 H4         -1.1074    0.9554   -3.5314 H         1 <0>         0.0000
     24 H5         -1.5623    0.0914   -2.0647 H         1 <0>         0.0000
     25 H6          0.5338    0.7242   -0.9626 H         1 <0>         0.0000
     26 H7          0.8941   -0.0240   -2.5145 H         1 <0>         0.0000
     27 H8         -2.6917    2.3136   -2.2469 H         1 <0>         0.0000
     28 H9         -1.7036    2.1851   -0.7963 H         1 <0>         0.0000
     29 H10         2.2636    2.0066   -2.0973 H         1 <0>         0.0000
     30 H11         1.2872    2.1416   -3.5645 H         1 <0>         0.0000
     31 H12        -0.9810    3.6181   -3.3990 H         1 <0>         0.0000
     32 H13        -1.3446    4.3584   -1.8367 H         1 <0>         0.0000
     33 H14         1.1613    5.4840   -1.8192 H         1 <0>         0.0000
     34 H15         1.0276    4.8637   -3.4643 H         1 <0>         0.0000
     35 H16         5.6424    4.0285   -1.1831 H         1 <0>         0.4500
     36 H17         3.8669    4.5278    0.6670 H         1 <0>         0.4500
     37 H18         2.2216    4.7514    0.1359 H         1 <0>         0.4500
     38 H19         0.3202    4.2174   -0.1978 H         1 <0>         0.4000
@<TRIPOS>BOND
     1    1    2 ar
     2    1    4 ar
     3    2    6 ar
     4    3    5 ar
     5    3    6 ar
     6    4    5 ar
     7    4   15 1
     8    5   16 1
     9    6   19 1
    10    7   15 1
    11    7   16 2
    12    7   17 1
    13    8    9 1
    14    8   10 1
    15    9   11 1
    16   10   12 1
    17   11   13 1
    18   12   13 1
    19   13   14 1
    20   13   18 1
    21   14   16 1
    22    1   20 1
    23    2   21 1
    24    3   22 1
    25    8   23 1
    26    8   24 1
    27    9   25 1
    28    9   26 1
    29   10   27 1
    30   10   28 1
    31   11   29 1
    32   11   30 1
    33   12   31 1
    34   12   32 1
    35   14   33 1
    36   14   34 1
    37   15   35 1
    38   17   36 1
    39   17   37 1
    40   18   38 1
