@<TRIPOS>MOLECULE
*****
   31    32     0     0     0
SMALL
USER_CHARGES

@<TRIPOS>ATOM
      1 C1         -5.2265    1.5074    4.6856 C.2       1 <0>        -0.1500
      2 C2         -4.4042    0.4537    4.2200 C.2       1 <0>        -0.1500
      3 C3         -5.1825    2.4829    3.7169 C.2       1 <0>        -0.0100
      4 C4         -3.9165    0.8604    2.9998 C.2       1 <0>        -0.0400
      5 C5          0.1984    1.3204    0.4940 C.2       1 <0>        -0.1356
      6 C6         -0.3413   -1.1859   -0.7567 C.2       1 <0>        -0.2882
      7 C7         -1.2659   -0.7247    0.0995 C.2       1 <0>         0.0288
      8 C8          1.0966    0.8258   -0.3654 C.2       1 <0>         0.0018
      9 C9         -1.0304    0.5543    0.8337 C.2       1 <0>         0.4212
     10 C10        -2.4723   -1.5485    0.2422 C.2       1 <0>         0.7056
     11 C11         0.9576   -0.4977   -1.0454 C.3       1 <0>         0.3816
     12 C12        -3.0010    0.2208    1.9938 C.3       1 <0>         0.4260
     13 N1          1.9329   -2.8723   -1.2917 N.2       1 <0>        -0.6901
     14 N2         -1.8291    1.0401    1.7307 N.2       1 <0>        -0.6960
     15 O1         -2.6007   -2.4440    1.0548 O.2       1 <0>        -0.5700
     16 O2          1.9114   -1.6964    1.0015 O.2       1 <0>        -0.6500
     17 O3          3.4665   -0.8775   -0.7345 O.2       1 <0>        -0.6500
     18 O4         -4.3862    2.0962    2.6858 O.3       1 <0>        -0.2800
     19 O5         -3.3947   -1.1551   -0.6594 O.3       1 <0>        -0.6500
     20 S1          2.2197   -1.5729   -0.4218 S.o2      1 <0>         0.7349
     21 Cl1         2.4666    1.7891   -0.8109 Cl        1 <0>        -0.1400
     22 H1         -5.7814    1.5507    5.6115 H         1 <0>         0.1500
     23 H2         -4.1949   -0.4839    4.7149 H         1 <0>         0.1500
     24 H3         -5.6373    3.4575    3.6164 H         1 <0>         0.1500
     25 H4          0.3236    2.2919    0.9616 H         1 <0>         0.1500
     26 H5         -0.5162   -2.1137   -1.2990 H         1 <0>         0.1500
     27 H6          1.0969   -0.4066   -2.1271 H         1 <0>         0.0000
     28 H7         -2.6840   -0.7673    2.3474 H         1 <0>         0.0000
     29 H8         -3.5368    0.0515    1.0529 H         1 <0>         0.0000
     30 H9          2.6114   -3.5933   -1.0224 H         1 <0>         0.1500
     31 H10        -4.2179   -1.6847   -0.5945 H         1 <0>         0.5000
@<TRIPOS>BOND
     1    1    2 1
     2    1    3 2
     3    2    4 2
     4    3   18 1
     5    4   12 1
     6    4   18 1
     7    5    8 2
     8    5    9 1
     9    6    7 2
    10    6   11 1
    11    7    9 1
    12    7   10 1
    13    8   11 1
    14    8   21 1
    15    9   14 2
    16   10   15 2
    17   10   19 1
    18   11   20 1
    19   12   14 1
    20   13   20 1
    21   16   20 2
    22   17   20 2
    23    1   22 1
    24    2   23 1
    25    3   24 1
    26    5   25 1
    27    6   26 1
    28   11   27 1
    29   12   28 1
    30   12   29 1
    31   13   30 1
    32   19   31 1
