@<TRIPOS>MOLECULE
*****
   27    29     0     0     0
SMALL
USER_CHARGES

@<TRIPOS>ATOM
      1 C1         -5.3122   -0.0668   -3.1872 C.ar      1 <0>        -0.1500
      2 C2         -5.1627   -0.8819   -2.0653 C.ar      1 <0>        -0.1500
      3 C3         -4.2497    0.7273   -3.6190 C.ar      1 <0>        -0.1500
      4 C4         -3.9509   -0.9029   -1.3749 C.ar      1 <0>        -0.1500
      5 C5         -3.0379    0.7063   -2.9286 C.ar      1 <0>        -0.1500
      6 C6         -2.8884   -0.1088   -1.8066 C.ar      1 <0>         0.0284
      7 C7          0.6291   -0.9622   -0.6267 C.2       1 <0>        -0.1500
      8 C8         -1.6237   -0.1303   -1.0866 C.2       1 <0>         0.0716
      9 C9          0.7764   -0.0843    0.3680 C.2       1 <0>         0.0288
     10 C10        -0.6205   -0.9932   -1.3912 C.2       1 <0>         0.1400
     11 C11        -0.3208    0.8427    0.6846 C.2       1 <0>         0.4856
     12 C12         1.7849    0.2775    1.3334 C.2       1 <0>         0.8316
     13 N1          0.0262    1.6133    1.6858 N.2       1 <0>        -0.4500
     14 N2          1.3800    1.2504    2.1034 N.2       1 <0>        -0.4500
     15 N3         -1.4808    0.7890   -0.0512 N.pl3     1 <0>        -0.5500
     16 N4          3.0757   -0.3391    1.4512 N.4       1 <0>        -0.7460
     17 Cl1        -0.7280   -2.1615   -2.6621 Cl        1 <0>        -0.1400
     18 H1         -6.2553   -0.0514   -3.7255 H         1 <0>         0.1500
     19 H2         -5.9895   -1.5012   -1.7296 H         1 <0>         0.1500
     20 H3         -4.3656    1.3611   -4.4932 H         1 <0>         0.1500
     21 H4         -3.8496   -1.5435   -0.5020 H         1 <0>         0.1500
     22 H5         -2.2190    1.3310   -3.2775 H         1 <0>         0.1500
     23 H6          1.4228   -1.6564   -0.8793 H         1 <0>         0.1500
     24 H7         -2.2569    1.4131    0.1409 H         1 <0>         0.4000
     25 H8          3.3284   -0.4395    2.4330 H         1 <0>         0.4500
     26 H9          3.7807    0.2322    0.9883 H         1 <0>         0.4500
     27 H10         3.0676   -1.2621    1.0200 H         1 <0>         0.4500
@<TRIPOS>BOND
     1    1    2 ar
     2    1    3 ar
     3    2    4 ar
     4    3    5 ar
     5    4    6 ar
     6    5    6 ar
     7    6    8 1
     8    7    9 2
     9    7   10 1
    10    8   10 2
    11    8   15 1
    12    9   11 1
    13    9   12 1
    14   10   17 1
    15   11   13 2
    16   11   15 1
    17   12   14 2
    18   12   16 1
    19   13   14 1
    20    1   18 1
    21    2   19 1
    22    3   20 1
    23    4   21 1
    24    5   22 1
    25    7   23 1
    26   15   24 1
    27   16   25 1
    28   16   26 1
    29   16   27 1
