@<TRIPOS>MOLECULE
*****
   41    42     0     0     0
SMALL
USER_CHARGES

@<TRIPOS>ATOM
      1 C1         -2.4455   -2.2163   -3.2045 C.ar      1 <0>        -0.1500
      2 C2         -3.5797   -1.5815   -1.1680 C.ar      1 <0>        -0.1500
      3 C3         -2.6342   -1.3138   -2.1579 C.ar      1 <0>        -0.1435
      4 C4         -3.2024   -3.3866   -3.2613 C.ar      1 <0>        -0.1435
      5 C5         -4.3366   -2.7518   -1.2247 C.ar      1 <0>        -0.1435
      6 C6         -4.1479   -3.6544   -2.2714 C.ar      1 <0>        -0.1710
      7 C7         -3.3309    1.9123   -1.5141 C.2       1 <0>         0.3756
      8 C8         -2.5801    1.1529   -2.5320 C.2       1 <0>        -0.1238
      9 C9         -2.7202    1.7101   -3.7545 C.2       1 <0>        -0.1000
     10 C10        -4.0723    3.4159   -3.0693 C.2       1 <0>         0.4410
     11 C11        -2.9534   -4.3169   -4.4102 C.3       1 <0>         0.1435
     12 C12        -5.3237   -1.8106    0.8932 C.3       1 <0>         0.0000
     13 C13        -5.0225   -4.2971    0.6430 C.3       1 <0>         0.0000
     14 C14        -6.8186   -3.1152   -0.6053 C.3       1 <0>         0.0000
     15 C15        -1.8166   -0.0495   -2.0966 C.3       1 <0>         0.2817
     16 C16        -5.3364   -2.9831   -0.1319 C.3       1 <0>         0.1435
     17 N1         -3.4372    2.8176   -4.0814 N.2       1 <0>        -0.5800
     18 N2         -4.0290    2.9709   -1.7643 N.2       1 <0>        -0.6610
     19 N3         -4.7709    4.4750   -3.3204 N.2       1 <0>        -0.8500
     20 N4         -2.1090    1.1721   -4.8599 N.pl3     1 <0>        -0.9000
     21 O1         -4.8449   -4.7322   -2.3235 O.3       1 <0>        -0.8290
     22 H1         -1.7074   -2.0055   -3.9751 H         1 <0>         0.1500
     23 H2         -3.7249   -0.8762   -0.3529 H         1 <0>         0.1500
     24 H3         -3.2765    1.5318   -0.4814 H         1 <0>         0.0600
     25 H4         -2.1752   -5.0390   -4.1451 H         1 <0>         0.0000
     26 H5         -3.8654   -4.8609   -4.6772 H         1 <0>         0.0000
     27 H6         -2.6347   -3.7629   -5.2994 H         1 <0>         0.0000
     28 H7         -6.0471   -1.9552    1.7041 H         1 <0>         0.0000
     29 H8         -4.3395   -1.6931    1.3597 H         1 <0>         0.0000
     30 H9         -5.5663   -0.8648    0.3943 H         1 <0>         0.0000
     31 H10        -5.7475   -4.4760    1.4445 H         1 <0>         0.0000
     32 H11        -5.0386   -5.1805   -0.0062 H         1 <0>         0.0000
     33 H12        -4.0294   -4.2403    1.1043 H         1 <0>         0.0000
     34 H13        -7.5105   -3.2830    0.2288 H         1 <0>         0.0000
     35 H14        -7.1489   -2.2047   -1.1189 H         1 <0>         0.0000
     36 H15        -6.9361   -3.9587   -1.2956 H         1 <0>         0.0000
     37 H16        -1.4533    0.0988   -1.0717 H         1 <0>         0.0000
     38 H17        -0.9188   -0.1541   -2.7183 H         1 <0>         0.0000
     39 H18        -5.1914    4.8124   -2.4500 H         1 <0>         0.4000
     40 H19        -1.5564    0.3564   -4.7393 H         1 <0>         0.4000
     41 H20        -2.2444    1.6205   -5.7351 H         1 <0>         0.4000
@<TRIPOS>BOND
     1    1    3 ar
     2    1    4 ar
     3    2    3 ar
     4    2    5 ar
     5    3   15 1
     6    4    6 ar
     7    4   11 1
     8    5    6 ar
     9    5   16 1
    10    6   21 1
    11    7    8 1
    12    7   18 2
    13    8    9 2
    14    8   15 1
    15    9   17 1
    16    9   20 1
    17   10   17 1
    18   10   18 1
    19   10   19 2
    20   12   16 1
    21   13   16 1
    22   14   16 1
    23    1   22 1
    24    2   23 1
    25    7   24 1
    26   11   25 1
    27   11   26 1
    28   11   27 1
    29   12   28 1
    30   12   29 1
    31   12   30 1
    32   13   31 1
    33   13   32 1
    34   13   33 1
    35   14   34 1
    36   14   35 1
    37   14   36 1
    38   15   37 1
    39   15   38 1
    40   19   39 1
    41   20   40 1
    42   20   41 1
