@<TRIPOS>MOLECULE
*****
   42    43     0     0     0
SMALL
USER_CHARGES

@<TRIPOS>ATOM
      1 C1         -3.2149   -2.4415   -0.1419 C.ar      1 <0>        -0.1500
      2 C2         -4.5485   -0.6172    0.7126 C.ar      1 <0>        -0.1500
      3 C3         -3.4889   -1.0757   -0.0701 C.ar      1 <0>        -0.1435
      4 C4         -4.0005   -3.3488    0.5691 C.ar      1 <0>        -0.1435
      5 C5         -5.3340   -1.5244    1.4237 C.ar      1 <0>        -0.1435
      6 C6         -5.0600   -2.8902    1.3519 C.ar      1 <0>         0.0825
      7 C7         -0.2280   -0.5859   -0.4662 C.2       1 <0>         0.0210
      8 C8         -1.3168    0.1471   -0.1881 C.2       1 <0>        -0.1682
      9 C9         -1.1313    1.2338    0.8171 C.2       1 <0>         0.1190
     10 C10         1.1272    0.5668    0.9832 C.2       1 <0>         0.0100
     11 C11        -3.6913   -4.8070    0.4798 C.3       1 <0>         0.1435
     12 C12        -6.5671    0.5397    2.1752 C.3       1 <0>         0.0000
     13 C13        -6.2760   -1.3969    3.7567 C.3       1 <0>         0.0000
     14 C14        -7.8800   -1.5485    1.8631 C.3       1 <0>         0.0000
     15 C15        -2.6421   -0.0972   -0.8372 C.3       1 <0>         0.2817
     16 C16        -6.4637   -1.0143    2.2565 C.3       1 <0>         0.1435
     17 N1          0.1952    1.4173    1.4149 N.2       1 <0>        -0.5500
     18 N2          0.9994   -0.3880    0.1106 N.2       1 <0>        -0.6210
     19 N3          2.3149    0.7568    1.5424 N.2       1 <0>        -0.9300
     20 N4         -2.0701    1.9912    1.1644 N.pl3     1 <0>        -0.1190
     21 O1         -5.8276   -3.7773    2.0477 O.3       1 <0>        -0.5325
     22 H1         -2.3890   -2.7987   -0.7526 H         1 <0>         0.1500
     23 H2         -4.7598    0.4482    0.7700 H         1 <0>         0.1500
     24 H3         -0.2730   -1.3966   -1.1858 H         1 <0>         0.1500
     25 H4         -2.9805   -5.0935    1.2635 H         1 <0>         0.0000
     26 H5         -4.5991   -5.4125    0.5930 H         1 <0>         0.0000
     27 H6         -3.2577   -5.0613   -0.4954 H         1 <0>         0.0000
     28 H7         -7.3898    0.9406    2.7788 H         1 <0>         0.0000
     29 H8         -5.6483    1.0225    2.5261 H         1 <0>         0.0000
     30 H9         -6.7293    0.8558    1.1379 H         1 <0>         0.0000
     31 H10        -7.1022   -1.0251    4.3726 H         1 <0>         0.0000
     32 H11        -6.2229   -2.4807    3.9129 H         1 <0>         0.0000
     33 H12        -5.3506   -0.9578    4.1478 H         1 <0>         0.0000
     34 H13        -8.6749   -1.1459    2.5026 H         1 <0>         0.0000
     35 H14        -8.1280   -1.2746    0.8310 H         1 <0>         0.0000
     36 H15        -7.9223   -2.6408    1.9464 H         1 <0>         0.0000
     37 H16        -2.4812   -0.4686   -1.8550 H         1 <0>         0.0000
     38 H17        -3.1684    0.8571   -0.9434 H         1 <0>         0.0000
     39 H18         2.6777   -0.1481    1.8501 H         1 <0>         0.1500
     40 H19        -3.0403    1.9183    0.7801 H         1 <0>         0.4000
     41 H20        -1.9605    2.7584    1.8669 H         1 <0>         0.4000
     42 H21        -5.5126   -4.6816    1.8960 H         1 <0>         0.4500
@<TRIPOS>BOND
     1    1    3 ar
     2    1    4 ar
     3    2    3 ar
     4    2    5 ar
     5    3   15 1
     6    4    6 ar
     7    4   11 1
     8    5    6 ar
     9    5   16 1
    10    6   21 1
    11    7    8 2
    12    7   18 1
    13    8    9 1
    14    8   15 1
    15    9   17 1
    16    9   20 2
    17   10   17 1
    18   10   18 2
    19   10   19 1
    20   12   16 1
    21   13   16 1
    22   14   16 1
    23    1   22 1
    24    2   23 1
    25    7   24 1
    26   11   25 1
    27   11   26 1
    28   11   27 1
    29   12   28 1
    30   12   29 1
    31   12   30 1
    32   13   31 1
    33   13   32 1
    34   13   33 1
    35   14   34 1
    36   14   35 1
    37   14   36 1
    38   15   37 1
    39   15   38 1
    40   19   39 1
    41   20   40 1
    42   20   41 1
    43   21   42 1
