@<TRIPOS>MOLECULE
*****
   42    43     0     0     0
SMALL
USER_CHARGES

@<TRIPOS>ATOM
      1 C1          3.0629    3.0312    0.8009 C.ar      1 <0>        -0.1500
      2 C2          1.3454    3.6368    2.3885 C.ar      1 <0>        -0.1500
      3 C3          1.7142    3.1272    1.1435 C.ar      1 <0>        -0.1435
      4 C4          4.0429    3.4448    1.7033 C.ar      1 <0>        -0.1435
      5 C5          2.3254    4.0504    3.2909 C.ar      1 <0>        -0.1435
      6 C6          3.6741    3.9544    2.9483 C.ar      1 <0>        -0.1710
      7 C7         -0.9941    1.1769    1.3085 C.2       1 <0>        -0.0500
      8 C8          0.0743    1.3525    0.5201 C.2       1 <0>        -0.1238
      9 C9          0.7016    0.1053   -0.0306 C.2       1 <0>         0.6466
     10 C10        -0.8859   -1.1817    1.0742 C.2       1 <0>         0.5500
     11 C11         5.4745    3.3170    1.2771 C.3       1 <0>         0.1435
     12 C12         0.3120    4.5752    4.7110 C.3       1 <0>         0.0000
     13 C13         2.3436    6.0578    4.8129 C.3       1 <0>         0.0000
     14 C14         2.3763    3.8042    5.8624 C.3       1 <0>         0.0000
     15 C15         0.6562    2.6807    0.1694 C.3       1 <0>         0.2817
     16 C16         1.8662    4.5890    4.6124 C.3       1 <0>         0.1435
     17 N1          0.1635   -1.1290    0.2920 N.2       1 <0>        -0.6610
     18 N2          1.7374    0.1353   -0.8041 N.2       1 <0>        -0.8500
     19 N3         -1.4874   -0.0604    1.5977 N.pl3     1 <0>        -0.5500
     20 N4         -1.4827   -2.3585    1.4444 N.pl3     1 <0>        -0.8500
     21 O1          4.5766    4.3354    3.7793 O.3       1 <0>        -0.8290
     22 H1          3.3479    2.6338   -0.1706 H         1 <0>         0.1500
     23 H2          0.2931    3.7107    2.6533 H         1 <0>         0.1500
     24 H3         -1.5379    1.9925    1.7683 H         1 <0>         0.1500
     25 H4          5.7980    4.2328    0.7731 H         1 <0>         0.0000
     26 H5          6.1246    3.1389    2.1399 H         1 <0>         0.0000
     27 H6          5.6045    2.4715    0.5935 H         1 <0>         0.0000
     28 H7         -0.0506    4.9648    5.6694 H         1 <0>         0.0000
     29 H8         -0.1476    5.1833    3.9241 H         1 <0>         0.0000
     30 H9         -0.0684    3.5528    4.6010 H         1 <0>         0.0000
     31 H10         2.0133    6.4615    5.7762 H         1 <0>         0.0000
     32 H11         3.4356    6.1512    4.7842 H         1 <0>         0.0000
     33 H12         1.9329    6.7033    4.0275 H         1 <0>         0.0000
     34 H13         2.0143    4.2358    6.8034 H         1 <0>         0.0000
     35 H14         2.0384    2.7616    5.8358 H         1 <0>         0.0000
     36 H15         3.4717    3.8074    5.9073 H         1 <0>         0.0000
     37 H16        -0.1440    3.4295    0.1309 H         1 <0>         0.0000
     38 H17         1.0730    2.6355   -0.8435 H         1 <0>         0.0000
     39 H18         1.9935   -0.8230   -1.0581 H         1 <0>         0.4000
     40 H19        -2.2993   -0.1201    2.2014 H         1 <0>         0.4000
     41 H20        -1.0995   -3.2091    1.1020 H         1 <0>         0.4000
     42 H21        -2.2763   -2.3170    2.0412 H         1 <0>         0.4000
@<TRIPOS>BOND
     1    1    3 ar
     2    1    4 ar
     3    2    3 ar
     4    2    5 ar
     5    3   15 1
     6    4    6 ar
     7    4   11 1
     8    5    6 ar
     9    5   16 1
    10    6   21 1
    11    7    8 2
    12    7   19 1
    13    8    9 1
    14    8   15 1
    15    9   17 1
    16    9   18 2
    17   10   17 2
    18   10   19 1
    19   10   20 1
    20   12   16 1
    21   13   16 1
    22   14   16 1
    23    1   22 1
    24    2   23 1
    25    7   24 1
    26   11   25 1
    27   11   26 1
    28   11   27 1
    29   12   28 1
    30   12   29 1
    31   12   30 1
    32   13   31 1
    33   13   32 1
    34   13   33 1
    35   14   34 1
    36   14   35 1
    37   14   36 1
    38   15   37 1
    39   15   38 1
    40   18   39 1
    41   19   40 1
    42   20   41 1
    43   20   42 1
