@<TRIPOS>MOLECULE
*****
   26    28     0     0     0
SMALL
USER_CHARGES

@<TRIPOS>ATOM
      1 C1          4.3573   -2.1976    3.6897 C.ar      1 <0>        -0.1500
      2 C2          3.5840   -1.1067    4.0865 C.ar      1 <0>        -0.1500
      3 C3          4.1297   -2.8008    2.4527 C.ar      1 <0>        -0.1500
      4 C4          2.5830   -0.6190    3.2464 C.ar      1 <0>        -0.1500
      5 C5          3.1287   -2.3131    1.6126 C.ar      1 <0>        -0.1500
      6 C6          2.3553   -1.2222    2.0094 C.ar      1 <0>         0.0862
      7 C7          0.3052    1.2685    0.1721 C.2       1 <0>        -0.2882
      8 C8          1.3076   -0.7117    1.1302 C.2       1 <0>         0.3494
      9 C9          1.4204    0.7158    0.6739 C.2       1 <0>         0.1544
     10 C10        -0.5759   -0.9381   -0.0651 C.2       1 <0>         0.6000
     11 C11        -1.7678    0.6102   -1.1649 C.2       1 <0>         0.4390
     12 C12        -0.9630    0.4907    0.1008 C.3       1 <0>         0.2602
     13 N1          0.3434   -1.5092    0.7649 N.2       1 <0>        -0.6610
     14 N2         -1.1262   -1.5213   -1.0802 N.2       1 <0>        -0.4500
     15 N3         -1.8811   -0.5313   -1.7836 N.2       1 <0>        -0.4500
     16 N4         -2.3174    1.8066   -1.5250 N.pl3     1 <0>        -0.8500
     17 Cl1         2.8890    1.5807    0.8348 Cl        1 <0>        -0.1400
     18 H1          5.1367   -2.5773    4.3438 H         1 <0>         0.1500
     19 H2          3.7612   -0.6373    5.0497 H         1 <0>         0.1500
     20 H3          4.7320   -3.6500    2.1436 H         1 <0>         0.1500
     21 H4          1.9863    0.2317    3.5656 H         1 <0>         0.1500
     22 H5          2.9601   -2.7910    0.6510 H         1 <0>         0.1500
     23 H6          0.2989    2.3063   -0.1484 H         1 <0>         0.1500
     24 H7         -1.6002    0.6397    0.9763 H         1 <0>         0.0000
     25 H8         -2.1735    2.5946   -0.9325 H         1 <0>         0.4000
     26 H9         -2.8451    1.8541   -2.3689 H         1 <0>         0.4000
@<TRIPOS>BOND
     1    1    2 ar
     2    1    3 ar
     3    2    4 ar
     4    3    5 ar
     5    4    6 ar
     6    5    6 ar
     7    6    8 1
     8    7    9 2
     9    7   12 1
    10    8    9 1
    11    8   13 2
    12    9   17 1
    13   10   12 1
    14   10   13 1
    15   10   14 2
    16   11   12 1
    17   11   15 2
    18   11   16 1
    19   14   15 1
    20    1   18 1
    21    2   19 1
    22    3   20 1
    23    4   21 1
    24    5   22 1
    25    7   23 1
    26   12   24 1
    27   16   25 1
    28   16   26 1
