@<TRIPOS>MOLECULE
*****
   41    43     0     0     0
SMALL
USER_CHARGES

@<TRIPOS>ATOM
      1 C1         -1.9862   -5.1980   -1.7174 C.ar      1 <0>        -0.1500
      2 C2         -4.0825   -3.9975   -1.7536 C.ar      1 <0>        -0.1500
      3 C3         -1.2930   -3.9877   -1.7171 C.ar      1 <0>        -0.1500
      4 C4         -3.3893   -2.7870   -1.7533 C.ar      1 <0>        -0.1500
      5 C5         -3.3810   -5.2029   -1.7357 C.ar      1 <0>        -0.1435
      6 C6         -1.9945   -2.7822   -1.7350 C.ar      1 <0>        -0.1435
      7 C7         -1.7154   -0.9731    0.7095 C.2       1 <0>         0.3756
      8 C8         -0.7056   -1.1266   -0.3841 C.2       1 <0>        -0.1238
      9 C9          0.5827   -0.9272   -0.0146 C.2       1 <0>         0.2000
     10 C10        -0.1491   -0.4820    2.2723 C.2       1 <0>         0.7110
     11 C11         2.6930   -1.9895   -0.6959 C.3       1 <0>         0.3691
     12 C12         1.7708   -0.1129   -2.0074 C.3       1 <0>         0.3691
     13 C13         3.0097   -2.6849   -2.0127 C.3       1 <0>         0.2800
     14 C14         2.1285   -0.8878   -3.2684 C.3       1 <0>         0.2800
     15 C15        -4.1229   -6.4966   -1.7360 C.3       1 <0>         0.1435
     16 C16        -1.2459   -1.4768   -1.7329 C.3       1 <0>         0.2817
     17 N1         -1.4772   -0.6744    1.9481 N.2       1 <0>        -0.6610
     18 N2          0.1039   -0.1828    3.5107 N.2       1 <0>        -0.8500
     19 N3          0.8339   -0.6070    1.3140 N.pl3     1 <0>        -0.5500
     20 N4          1.6149   -1.0290   -0.8861 N.pl3     1 <0>        -0.8382
     21 O1          3.2727   -1.7164   -3.0341 O.3       1 <0>        -0.5600
     22 H1         -1.4314   -6.1325   -1.7040 H         1 <0>         0.1500
     23 H2         -5.1693   -3.9922   -1.7667 H         1 <0>         0.1500
     24 H3         -0.2064   -3.9933   -1.7012 H         1 <0>         0.1500
     25 H4         -3.9436   -1.8523   -1.7675 H         1 <0>         0.1500
     26 H5         -2.7637   -1.1351    0.4074 H         1 <0>         0.0600
     27 H6          2.4420   -2.7425    0.0608 H         1 <0>         0.0000
     28 H7          3.5785   -1.4471   -0.3418 H         1 <0>         0.0000
     29 H8          2.5764    0.5916   -1.7660 H         1 <0>         0.0000
     30 H9          0.8616    0.4734   -2.1875 H         1 <0>         0.0000
     31 H10         3.9065   -3.3027   -1.9027 H         1 <0>         0.0000
     32 H11         2.1902   -3.3407   -2.3301 H         1 <0>         0.0000
     33 H12         1.2911   -1.5065   -3.6122 H         1 <0>         0.0000
     34 H13         2.3814   -0.1928   -4.0751 H         1 <0>         0.0000
     35 H14        -4.3265   -6.8205   -0.7080 H         1 <0>         0.0000
     36 H15        -5.0788   -6.4077   -2.2685 H         1 <0>         0.0000
     37 H16        -3.5498   -7.2845   -2.2420 H         1 <0>         0.0000
     38 H17        -0.4197   -1.5262   -2.4509 H         1 <0>         0.0000
     39 H18        -1.8975   -0.6670   -2.0784 H         1 <0>         0.0000
     40 H19         1.1132   -0.0668    3.6215 H         1 <0>         0.4000
     41 H20         1.8082   -0.4646    1.5586 H         1 <0>         0.4000
@<TRIPOS>BOND
     1    1    3 ar
     2    1    5 ar
     3    2    4 ar
     4    2    5 ar
     5    3    6 ar
     6    4    6 ar
     7    5   15 1
     8    6   16 1
     9    7    8 1
    10    7   17 2
    11    8    9 2
    12    8   16 1
    13    9   19 1
    14    9   20 1
    15   10   17 1
    16   10   18 2
    17   10   19 1
    18   11   13 1
    19   11   20 1
    20   12   14 1
    21   12   20 1
    22   13   21 1
    23   14   21 1
    24    1   22 1
    25    2   23 1
    26    3   24 1
    27    4   25 1
    28    7   26 1
    29   11   27 1
    30   11   28 1
    31   12   29 1
    32   12   30 1
    33   13   31 1
    34   13   32 1
    35   14   33 1
    36   14   34 1
    37   15   35 1
    38   15   36 1
    39   15   37 1
    40   16   38 1
    41   16   39 1
    42   18   40 1
    43   19   41 1
