@<TRIPOS>MOLECULE
*****
   47    50     0     0     0
SMALL
USER_CHARGES

@<TRIPOS>ATOM
      1 C1         -7.7697   -2.5698    2.1385 C.ar      1 <0>        -0.1500
      2 C2         -7.8583   -3.4707    1.0593 C.ar      1 <0>        -0.1500
      3 C3         -6.5278   -2.1346    2.6191 C.ar      1 <0>        -0.1500
      4 C4         -6.7078   -3.9552    0.4380 C.ar      1 <0>        -0.1500
      5 C5          4.5382   -1.0995    2.2819 C.ar      1 <0>         0.1600
      6 C6          4.9589   -2.9365    3.6621 C.ar      1 <0>         0.1600
      7 C7          4.6507   -2.4698    2.4005 C.ar      1 <0>        -0.1435
      8 C8         -5.3877   -2.6131    2.0053 C.ar      1 <0>         0.1000
      9 C9         -5.5012   -3.5079    0.9338 C.ar      1 <0>         0.3640
     10 C10         5.0080   -0.8193    4.4882 C.ar      1 <0>         0.7025
     11 C11         2.3300   -2.8136    0.0219 C.2       1 <0>         0.0210
     12 C12         3.0077   -3.5840    0.8885 C.2       1 <0>        -0.1238
     13 C13         2.2635   -4.6956    1.5482 C.2       1 <0>         0.6156
     14 C14        -3.2956   -3.1087    1.3408 C.2       1 <0>         0.4560
     15 C15         0.3762   -3.9146    0.2583 C.2       1 <0>         0.6510
     16 C16        -1.9744   -3.2202    1.1658 C.2       1 <0>        -0.0490
     17 C17        -3.5977   -1.4892    3.3041 C.3       1 <0>         0.3691
     18 C18         5.0499    1.4154    5.3007 C.3       1 <0>         0.2800
     19 C19         4.4492   -3.3951    1.2305 C.3       1 <0>         0.2817
     20 N1          4.7110   -0.2415    3.3086 N.ar      1 <0>        -0.6200
     21 N2          5.1452   -2.1366    4.7325 N.ar      1 <0>        -0.6200
     22 N3          1.0078   -2.9462   -0.3223 N.2       1 <0>        -0.6210
     23 N4          0.9379   -4.7840    1.1663 N.am      1 <0>        -0.4900
     24 N5         -4.0404   -2.3708    2.2507 N.pl3     1 <0>        -0.5691
     25 N6         -4.1620   -3.8675    0.4570 N.4       1 <0>        -0.6200
     26 O1          2.8015   -5.4494    2.3531 O.2       1 <0>        -0.5700
     27 O2          5.1927    0.0258    5.5576 O.3       1 <0>        -0.3625
     28 S1         -1.2869   -4.2218   -0.0593 S.3       1 <0>        -0.2420
     29 H1         -8.6818   -2.2069    2.6056 H         1 <0>         0.1500
     30 H2         -8.8361   -3.7903    0.7089 H         1 <0>         0.1500
     31 H3         -6.4803   -1.4405    3.4512 H         1 <0>         0.1500
     32 H4         -6.7666   -4.6487   -0.3920 H         1 <0>         0.1500
     33 H5          4.2979   -0.6331    1.3317 H         1 <0>         0.1500
     34 H6          5.0699   -3.9981    3.8596 H         1 <0>         0.1500
     35 H7          2.8389   -1.9941   -0.4771 H         1 <0>         0.1500
     36 H8         -1.2996   -2.6668    1.8087 H         1 <0>         0.1500
     37 H9         -3.4613   -2.0648    4.2315 H         1 <0>         0.0000
     38 H10        -2.6426   -1.0254    3.0167 H         1 <0>         0.0000
     39 H11        -4.3518   -0.7051    3.4668 H         1 <0>         0.0000
     40 H12         5.2195    1.9765    6.2229 H         1 <0>         0.0000
     41 H13         4.0452    1.6150    4.9196 H         1 <0>         0.0000
     42 H14         5.7875    1.7162    4.5529 H         1 <0>         0.0000
     43 H15         4.9801   -3.0012    0.3563 H         1 <0>         0.0000
     44 H16         4.8991   -4.3719    1.4405 H         1 <0>         0.0000
     45 H17         0.3598   -5.5150    1.5695 H         1 <0>         0.3700
     46 H18        -4.0263   -4.8829    0.5458 H         1 <0>         0.4500
     47 H19        -4.0619   -3.5913   -0.5284 H         1 <0>         0.4500
@<TRIPOS>BOND
     1    1    2 ar
     2    1    3 ar
     3    2    4 ar
     4    3    8 ar
     5    4    9 ar
     6    5    7 ar
     7    5   20 ar
     8    6    7 ar
     9    6   21 ar
    10    7   19 1
    11    8    9 ar
    12    8   24 1
    13    9   25 1
    14   10   20 ar
    15   10   21 ar
    16   10   27 1
    17   11   12 2
    18   11   22 1
    19   12   13 1
    20   12   19 1
    21   13   23 am
    22   13   26 2
    23   14   16 2
    24   14   24 1
    25   14   25 1
    26   15   22 2
    27   15   23 1
    28   15   28 1
    29   16   28 1
    30   17   24 1
    31   18   27 1
    32    1   29 1
    33    2   30 1
    34    3   31 1
    35    4   32 1
    36    5   33 1
    37    6   34 1
    38   11   35 1
    39   16   36 1
    40   17   37 1
    41   17   38 1
    42   17   39 1
    43   18   40 1
    44   18   41 1
    45   18   42 1
    46   19   43 1
    47   19   44 1
    48   23   45 1
    49   25   46 1
    50   25   47 1
