@<TRIPOS>MOLECULE
*****
   26    27     0     0     0
SMALL
USER_CHARGES

@<TRIPOS>ATOM
      1 C1          0.0753    2.1066   -0.2166 C.ar      1 <0>        -0.1500
      2 C2          2.1116    0.3841    0.6296 C.ar      1 <0>        -0.1500
      3 C3         -0.1647    0.7316   -0.1362 C.ar      1 <0>         0.0862
      4 C4          0.8588   -0.1356    0.2894 C.ar      1 <0>         0.1000
      5 C5          1.3309    2.6133    0.1261 C.ar      1 <0>         0.0825
      6 C6          2.3460    1.7559    0.5475 C.ar      1 <0>         0.0825
      7 C7         -1.4848    0.1183   -0.4871 C.2       1 <0>         0.5748
      8 C8         -0.6449   -1.9561    0.0178 C.2       1 <0>         0.7090
      9 C9          1.2728    4.7307    1.2074 C.3       1 <0>         0.2800
     10 C10         4.5385    2.3433   -0.1622 C.3       1 <0>         0.2800
     11 N1         -1.6539   -1.2507   -0.3848 N.2       1 <0>        -0.6610
     12 N2         -2.4789    0.8414   -0.8861 N.2       1 <0>        -0.8500
     13 N3          0.5983   -1.5070    0.3633 N.pl3     1 <0>        -0.5500
     14 O1          1.5516    3.9560    0.0433 O.3       1 <0>        -0.3625
     15 O2          3.5719    2.2471    0.8820 O.3       1 <0>        -0.3625
     16 Cl1        -0.8619   -3.6550    0.1411 Cl        1 <0>        -0.2090
     17 H1         -0.7047    2.7892   -0.5429 H         1 <0>         0.1500
     18 H2          2.9074   -0.2806    0.9579 H         1 <0>         0.1500
     19 H3          1.4911    5.7824    1.0069 H         1 <0>         0.0000
     20 H4          1.8844    4.3727    2.0395 H         1 <0>         0.0000
     21 H5          0.2158    4.6223    1.4617 H         1 <0>         0.0000
     22 H6          5.4703    2.7494    0.2390 H         1 <0>         0.0000
     23 H7          4.1570    2.9925   -0.9544 H         1 <0>         0.0000
     24 H8          4.7234    1.3461   -0.5685 H         1 <0>         0.0000
     25 H9         -3.2819    0.2340   -1.0729 H         1 <0>         0.4000
     26 H10         1.3308   -2.1356    0.6681 H         1 <0>         0.4000
@<TRIPOS>BOND
     1    1    3 ar
     2    1    5 ar
     3    2    4 ar
     4    2    6 ar
     5    3    4 ar
     6    3    7 1
     7    4   13 1
     8    5    6 ar
     9    5   14 1
    10    6   15 1
    11    7   11 1
    12    7   12 2
    13    8   11 2
    14    8   13 1
    15    8   16 1
    16    9   14 1
    17   10   15 1
    18    1   17 1
    19    2   18 1
    20    9   19 1
    21    9   20 1
    22    9   21 1
    23   10   22 1
    24   10   23 1
    25   10   24 1
    26   12   25 1
    27   13   26 1
