@<TRIPOS>MOLECULE
*****
   24    25     0     0     0
SMALL
USER_CHARGES

@<TRIPOS>ATOM
      1 C1         -0.0164    0.1490   -1.0709 C.2       1 <0>        -0.3016
      2 C2          0.7839    0.8804   -1.9155 C.2       1 <0>         0.1412
      3 C3         -0.6790   -0.0335   -3.1826 C.2       1 <0>         0.1415
      4 C4         -2.8070   -1.7399   -2.5132 C.2       1 <0>        -0.1500
      5 C5         -2.5524   -1.3414   -3.8879 C.2       1 <0>        -0.1500
      6 C6         -2.0057   -1.2815   -1.5408 C.2       1 <0>        -0.1810
      7 C7         -1.5330   -0.5197   -4.2361 C.2       1 <0>        -0.0932
      8 C8          1.9120    1.6745   -1.5351 C.2       1 <0>         0.8060
      9 C9          3.6551    3.1112   -2.3598 C.3       1 <0>         0.2800
     10 C10        -1.3313   -0.1499   -5.6827 C.3       1 <0>         1.1582
     11 N1          0.3707    0.7643   -3.2177 N.2       1 <0>        -0.5653
     12 N2         -0.9553   -0.4380   -1.8798 N.pl3     1 <0>         0.3342
     13 O1          2.3349    1.8174   -0.3659 O.2       1 <0>        -0.5700
     14 O2          2.5115    2.2878   -2.6123 O.3       1 <0>        -0.4300
     15 F1         -0.2729    0.6693   -5.8188 F         1 <0>        -0.3400
     16 F2         -1.1118   -1.2486   -6.4277 F         1 <0>        -0.3400
     17 F3         -2.4160    0.4791   -6.1706 F         1 <0>        -0.3400
     18 H1         -0.0028   -0.0022    0.0001 H         1 <0>         0.1500
     19 H2         -3.6398   -2.4002   -2.3039 H         1 <0>         0.1500
     20 H3         -3.2315   -1.7416   -4.6351 H         1 <0>         0.1500
     21 H4         -2.1384   -1.5387   -0.4970 H         1 <0>         0.1500
     22 H5          4.0203    3.5277   -3.3017 H         1 <0>         0.0000
     23 H6          4.4377    2.5137   -1.8855 H         1 <0>         0.0000
     24 H7          3.3660    3.9258   -1.6916 H         1 <0>         0.0000
@<TRIPOS>BOND
     1    1    2 2
     2    1   12 1
     3    2    8 1
     4    2   11 1
     5    3    7 1
     6    3   11 2
     7    3   12 1
     8    4    5 1
     9    4    6 2
    10    5    7 2
    11    6   12 1
    12    7   10 1
    13    8   13 2
    14    8   14 1
    15    9   14 1
    16   10   15 1
    17   10   16 1
    18   10   17 1
    19    1   18 1
    20    4   19 1
    21    5   20 1
    22    6   21 1
    23    9   22 1
    24    9   23 1
    25    9   24 1
