@<TRIPOS>MOLECULE
*****
   30    31     0     0     0
SMALL
USER_CHARGES

@<TRIPOS>ATOM
      1 C1          1.9580   -1.0368   -0.1093 C.ar      1 <0>        -0.1500
      2 C2          2.8591   -0.2921    0.6517 C.ar      1 <0>        -0.1500
      3 C3          3.3560   -0.2269    7.3033 C.ar      1 <0>        -0.1500
      4 C4          0.9777   -1.8023    0.5222 C.ar      1 <0>        -0.1500
      5 C5          4.6662   -0.6386    7.0595 C.ar      1 <0>        -0.1500
      6 C6          2.7800   -0.3131    2.0442 C.ar      1 <0>        -0.1500
      7 C7          2.3828   -0.3760    6.3152 C.ar      1 <0>        -0.1500
      8 C8          4.0300   -1.3485    4.8395 C.ar      1 <0>        -0.1500
      9 C9          0.8986   -1.8233    1.9146 C.ar      1 <0>         0.0862
     10 C10         5.0032   -1.1993    5.8276 C.ar      1 <0>        -0.1435
     11 C11         2.7198   -0.9368    5.0833 C.ar      1 <0>         0.1000
     12 C12         1.7997   -1.0786    2.6757 C.ar      1 <0>         0.1000
     13 C13        -0.1366   -2.6336    2.5441 C.2       1 <0>         0.6338
     14 C14         6.4043   -1.6387    5.5670 C.3       1 <0>         1.1635
     15 N1          1.7380   -1.0876    4.0870 N.pl3     1 <0>        -0.6000
     16 O1         -0.0459   -3.1724    3.6500 O.2       1 <0>        -0.5700
     17 O2         -1.2502   -2.7420    1.7710 O.3       1 <0>        -0.6500
     18 F1          7.2481   -1.4320    6.6212 F         1 <0>        -0.3400
     19 F2          6.5154   -2.9691    5.2780 F         1 <0>        -0.3400
     20 F3          6.9716   -0.9861    4.5109 F         1 <0>        -0.3400
     21 H1          2.0188   -1.0203   -1.1935 H         1 <0>         0.1500
     22 H2          3.6227    0.3033    0.1599 H         1 <0>         0.1500
     23 H3          3.0936    0.2098    8.2627 H         1 <0>         0.1500
     24 H4          0.2827   -2.3791   -0.0827 H         1 <0>         0.1500
     25 H5          5.4182   -0.5185    7.8352 H         1 <0>         0.1500
     26 H6          3.4878    0.2714    2.6264 H         1 <0>         0.1500
     27 H7          1.3647   -0.0521    6.5160 H         1 <0>         0.1500
     28 H8          4.2944   -1.7862    3.8796 H         1 <0>         0.1500
     29 H9          0.8012   -1.2302    4.4502 H         1 <0>         0.4000
     30 H10        -1.9537   -3.2850    2.1864 H         1 <0>         0.5000
@<TRIPOS>BOND
     1    1    2 ar
     2    1    4 ar
     3    2    6 ar
     4    3    5 ar
     5    3    7 ar
     6    4    9 ar
     7    5   10 ar
     8    6   12 ar
     9    7   11 ar
    10    8   10 ar
    11    8   11 ar
    12    9   12 ar
    13    9   13 1
    14   10   14 1
    15   11   15 1
    16   12   15 1
    17   13   16 2
    18   13   17 1
    19   14   18 1
    20   14   19 1
    21   14   20 1
    22    1   21 1
    23    2   22 1
    24    3   23 1
    25    4   24 1
    26    5   25 1
    27    6   26 1
    28    7   27 1
    29    8   28 1
    30   15   29 1
    31   17   30 1
