@<TRIPOS>MOLECULE
*****
   47    50     0     0     0
SMALL
USER_CHARGES

@<TRIPOS>ATOM
      1 C1         -9.6278    2.1681   -0.6178 C.ar      1 <0>        -0.1500
      2 C2         -9.3204    1.9914   -1.9821 C.ar      1 <0>        -0.1500
      3 C3         -8.8431    1.5855    0.3806 C.ar      1 <0>        -0.1500
      4 C4         -8.2201    1.2270   -2.3849 C.ar      1 <0>        -0.1500
      5 C5          1.0918   -2.8230    4.1982 C.ar      1 <0>         0.1600
      6 C6         -0.3023   -4.3956    5.2180 C.ar      1 <0>         0.1600
      7 C7         -0.4625   -2.9907    0.9379 C.ar      1 <0>         0.2110
      8 C8          0.3003   -3.9452    4.0611 C.ar      1 <0>        -0.1435
      9 C9         -0.8756   -3.9662    1.8315 C.ar      1 <0>        -0.1435
     10 C10        -7.7628    0.8346   -0.0245 C.ar      1 <0>         0.1000
     11 C11        -7.4460    0.6513   -1.3993 C.ar      1 <0>         0.1000
     12 C12        -2.2268   -4.2761    1.8438 C.ar      1 <0>         0.3925
     13 C13         0.6450   -2.7181    6.4245 C.ar      1 <0>         0.7025
     14 C14        -2.6512   -2.7561    0.2134 C.ar      1 <0>         0.7725
     15 C15        -5.9214   -0.4567   -0.1521 C.2       1 <0>         0.2000
     16 C16        -4.8751   -1.1997    0.2405 C.2       1 <0>        -0.0490
     17 C17        -5.7002   -0.5245   -2.7352 C.3       1 <0>         0.3691
     18 C18         1.6633   -0.9462    7.6406 C.3       1 <0>         0.2800
     19 C19         0.1046   -4.6379    2.7255 C.3       1 <0>         0.2870
     20 N1          1.2869   -2.1818    5.3691 N.ar      1 <0>        -0.6200
     21 N2         -0.1511   -3.8043    6.4212 N.ar      1 <0>        -0.6200
     22 N3         -3.1475   -3.6910    1.0476 N.ar      1 <0>        -0.6200
     23 N4         -1.3627   -2.3998    0.1405 N.ar      1 <0>        -0.1790
     24 N5         -6.8136    0.1447    0.7343 N.pl3     1 <0>        -0.6000
     25 N6         -6.2979   -0.1574   -1.4757 N.pl3     1 <0>        -0.5691
     26 O1         -2.6922   -5.2328    2.7086 O.3       1 <0>        -0.5325
     27 O2          0.8225   -2.0908    7.6357 O.3       1 <0>        -0.3625
     28 S1         -3.7924   -1.9283   -0.8843 S.3       1 <0>        -0.2025
     29 H1        -10.4908    2.7682   -0.3402 H         1 <0>         0.1500
     30 H2         -9.9523    2.4582   -2.7337 H         1 <0>         0.1500
     31 H3         -9.0818    1.7233    1.4286 H         1 <0>         0.1500
     32 H4         -7.9970    1.1002   -3.4381 H         1 <0>         0.1500
     33 H5          1.6087   -2.3896    3.3479 H         1 <0>         0.1500
     34 H6         -0.9440   -5.2713    5.2160 H         1 <0>         0.1500
     35 H7          0.5588   -2.6540    0.8262 H         1 <0>         0.1500
     36 H8         -4.6969   -1.3512    1.2965 H         1 <0>         0.1500
     37 H9         -4.9496    0.2279   -3.0186 H         1 <0>         0.0000
     38 H10        -5.2156   -1.5073   -2.6384 H         1 <0>         0.0000
     39 H11        -6.4795   -0.5748   -3.5099 H         1 <0>         0.0000
     40 H12         1.7234   -0.5416    8.6539 H         1 <0>         0.0000
     41 H13         1.2591   -0.1931    6.9595 H         1 <0>         0.0000
     42 H14         2.6622   -1.2374    7.3073 H         1 <0>         0.0000
     43 H15         1.0879   -4.7310    2.2282 H         1 <0>         0.0000
     44 H16        -0.1906   -5.6873    2.9112 H         1 <0>         0.0000
     45 H17        -1.0697   -1.6819   -0.5199 H         1 <0>         0.4570
     46 H18        -6.7603    0.0809    1.7360 H         1 <0>         0.4000
     47 H19        -3.6476   -5.3349    2.5989 H         1 <0>         0.4500
@<TRIPOS>BOND
     1    1    2 ar
     2    1    3 ar
     3    2    4 ar
     4    3   10 ar
     5    4   11 ar
     6    5    8 ar
     7    5   20 ar
     8    6    8 ar
     9    6   21 ar
    10    7    9 ar
    11    7   23 ar
    12    8   19 1
    13    9   12 ar
    14    9   19 1
    15   10   11 ar
    16   10   24 1
    17   11   25 1
    18   12   22 ar
    19   12   26 1
    20   13   20 ar
    21   13   21 ar
    22   13   27 1
    23   14   22 ar
    24   14   23 ar
    25   14   28 1
    26   15   16 2
    27   15   24 1
    28   15   25 1
    29   16   28 1
    30   17   25 1
    31   18   27 1
    32    1   29 1
    33    2   30 1
    34    3   31 1
    35    4   32 1
    36    5   33 1
    37    6   34 1
    38    7   35 1
    39   16   36 1
    40   17   37 1
    41   17   38 1
    42   17   39 1
    43   18   40 1
    44   18   41 1
    45   18   42 1
    46   19   43 1
    47   19   44 1
    48   23   45 1
    49   24   46 1
    50   26   47 1
