@<TRIPOS>MOLECULE
*****
   47    50     0     0     0
SMALL
USER_CHARGES

@<TRIPOS>ATOM
      1 C1         -7.5223   -7.4607    0.4053 C.ar      1 <0>        -0.1500
      2 C2         -7.2703   -6.7599    1.6008 C.ar      1 <0>        -0.1500
      3 C3         -6.6017   -7.4468   -0.6507 C.ar      1 <0>        -0.1500
      4 C4         -6.0931   -6.0309    1.7660 C.ar      1 <0>        -0.1500
      5 C5          4.4136   -5.5256   -4.0811 C.ar      1 <0>         0.1600
      6 C6          3.4179   -4.3362   -5.8275 C.ar      1 <0>         0.1600
      7 C7          2.3707   -4.0907   -1.4486 C.ar      1 <0>         0.1600
      8 C8          3.7634   -4.3799   -4.4922 C.ar      1 <0>        -0.1435
      9 C9          2.2584   -3.4802   -2.6811 C.ar      1 <0>        -0.1435
     10 C10        -5.4357   -6.7258   -0.4889 C.ar      1 <0>         0.1000
     11 C11        -5.2074   -6.0372    0.7091 C.ar      1 <0>         0.3640
     12 C12         0.9807   -3.1136   -3.0516 C.ar      1 <0>         0.3925
     13 C13         4.3197   -6.3927   -6.1802 C.ar      1 <0>         0.7025
     14 C14         0.1295   -3.9254   -1.1065 C.ar      1 <0>         0.7215
     15 C15        -3.4370   -5.7108   -0.6869 C.2       1 <0>         0.4560
     16 C16        -2.2496   -5.2322   -1.0737 C.2       1 <0>        -0.0490
     17 C17        -4.2947   -7.1053   -2.6587 C.3       1 <0>         0.3691
     18 C18         5.2802   -8.5453   -6.4956 C.3       1 <0>         0.2800
     19 C19         3.4478   -3.2424   -3.5377 C.3       1 <0>         0.2870
     20 N1          4.7087   -6.5554   -4.9013 N.ar      1 <0>        -0.6200
     21 N2          3.6817   -5.3282   -6.7030 N.ar      1 <0>        -0.6200
     22 N3          1.3233   -4.3298   -0.6324 N.ar      1 <0>        -0.6200
     23 N4         -0.1106   -3.3218   -2.2862 N.ar      1 <0>        -0.6200
     24 N5         -4.3530   -6.5253   -1.3386 N.pl3     1 <0>        -0.5691
     25 N6         -3.9122   -5.3534    0.6374 N.4       1 <0>        -0.6200
     26 O1          0.7716   -2.5008   -4.2591 O.3       1 <0>        -0.5325
     27 O2          4.6058   -7.4229   -7.0456 O.3       1 <0>        -0.3625
     28 S1         -1.2869   -4.2218   -0.0593 S.3       1 <0>        -0.2025
     29 H1         -8.4478   -8.0216    0.3016 H         1 <0>         0.1500
     30 H2         -8.0037   -6.7894    2.4023 H         1 <0>         0.1500
     31 H3         -6.8138   -7.9928   -1.5635 H         1 <0>         0.1500
     32 H4         -5.8915   -5.4886    2.6818 H         1 <0>         0.1500
     33 H5          4.7266   -5.6579   -3.0502 H         1 <0>         0.1500
     34 H6          2.9038   -3.4782   -6.2497 H         1 <0>         0.1500
     35 H7          3.3321   -4.4173   -1.0649 H         1 <0>         0.1500
     36 H8         -1.8656   -5.4801   -2.0564 H         1 <0>         0.1500
     37 H9         -4.7421   -6.4108   -3.3850 H         1 <0>         0.0000
     38 H10        -3.2455   -7.2938   -2.9302 H         1 <0>         0.0000
     39 H11        -4.8518   -8.0538   -2.6673 H         1 <0>         0.0000
     40 H12         5.4487   -9.2894   -7.2779 H         1 <0>         0.0000
     41 H13         4.6774   -8.9760   -5.6920 H         1 <0>         0.0000
     42 H14         6.2420   -8.2197   -6.0925 H         1 <0>         0.0000
     43 H15         4.3439   -3.0427   -2.9199 H         1 <0>         0.0000
     44 H16         3.3296   -2.3122   -4.1253 H         1 <0>         0.0000
     45 H17        -4.0513   -4.3406    0.7481 H         1 <0>         0.4500
     46 H18        -3.2979   -5.7006    1.3854 H         1 <0>         0.4500
     47 H19        -0.1701   -2.3088   -4.3699 H         1 <0>         0.4500
@<TRIPOS>BOND
     1    1    2 ar
     2    1    3 ar
     3    2    4 ar
     4    3   10 ar
     5    4   11 ar
     6    5    8 ar
     7    5   20 ar
     8    6    8 ar
     9    6   21 ar
    10    7    9 ar
    11    7   22 ar
    12    8   19 1
    13    9   12 ar
    14    9   19 1
    15   10   11 ar
    16   10   24 1
    17   11   25 1
    18   12   23 ar
    19   12   26 1
    20   13   20 ar
    21   13   21 ar
    22   13   27 1
    23   14   22 ar
    24   14   23 ar
    25   14   28 1
    26   15   16 2
    27   15   24 1
    28   15   25 1
    29   16   28 1
    30   17   24 1
    31   18   27 1
    32    1   29 1
    33    2   30 1
    34    3   31 1
    35    4   32 1
    36    5   33 1
    37    6   34 1
    38    7   35 1
    39   16   36 1
    40   17   37 1
    41   17   38 1
    42   17   39 1
    43   18   40 1
    44   18   41 1
    45   18   42 1
    46   19   43 1
    47   19   44 1
    48   25   45 1
    49   25   46 1
    50   26   47 1
