@<TRIPOS>MOLECULE
*****
   27    29     0     0     0
SMALL
USER_CHARGES

@<TRIPOS>ATOM
      1 C1          7.0900   -0.3604   -1.5877 C.ar      1 <0>        -0.1500
      2 C2          6.2970   -1.4845   -1.8180 C.ar      1 <0>        -0.1500
      3 C3          6.4983    0.8965   -1.4616 C.ar      1 <0>        -0.1500
      4 C4          4.9124   -1.3519   -1.9223 C.ar      1 <0>        -0.1500
      5 C5          5.1137    1.0292   -1.5659 C.ar      1 <0>        -0.1500
      6 C6          0.6654    0.0709   -0.8478 C.ar      1 <0>        -0.1500
      7 C7          0.2956    0.2992   -2.1646 C.ar      1 <0>         0.0000
      8 C8          4.3207   -0.0950   -1.7962 C.ar      1 <0>         0.0000
      9 C9          2.0553   -0.0595   -0.7577 C.ar      1 <0>         0.1770
     10 C10         2.8795    0.0426   -1.9046 C.ar      1 <0>         0.3100
     11 C11         1.1423    0.3995   -3.3104 C.ar      1 <0>         0.5448
     12 C12        -0.9812    0.4749   -2.6222 C.2       1 <0>         0.1594
     13 N1          2.4945    0.2692   -3.2014 N.ar      1 <0>        -0.5660
     14 N2          0.4269    0.6256   -4.4181 N.2       1 <0>        -0.7068
     15 N3         -0.8458    0.6655   -3.9704 N.pl3     1 <0>         0.2996
     16 N4         -2.2247    0.4682   -1.8802 N.4       1 <0>        -0.6610
     17 Cl1         2.7241   -0.3510    0.8139 Cl        1 <0>        -0.1770
     18 H1          8.1679   -0.4641   -1.5049 H         1 <0>         0.1500
     19 H2          6.7574   -2.4635   -1.9146 H         1 <0>         0.1500
     20 H3          7.1150    1.7721   -1.2809 H         1 <0>         0.1500
     21 H4          4.3079   -2.2379   -2.1018 H         1 <0>         0.1500
     22 H5          4.6665    2.0152   -1.4648 H         1 <0>         0.1500
     23 H6         -0.0094    0.0017   -0.0062 H         1 <0>         0.1500
     24 H7         -1.5812    0.8286   -4.6465 H         1 <0>         0.2700
     25 H8         -2.0973   -0.0222   -0.9853 H         1 <0>         0.4500
     26 H9         -2.5457    1.4255   -1.6841 H         1 <0>         0.4500
     27 H10        -2.9567   -0.0130   -2.4192 H         1 <0>         0.4500
@<TRIPOS>BOND
     1    1    2 ar
     2    1    3 ar
     3    2    4 ar
     4    3    5 ar
     5    4    8 ar
     6    5    8 ar
     7    6    7 ar
     8    6    9 ar
     9    7   11 ar
    10    7   12 2
    11    8   10 1
    12    9   10 ar
    13    9   17 1
    14   10   13 ar
    15   11   13 ar
    16   11   14 2
    17   12   15 1
    18   12   16 1
    19   14   15 1
    20    1   18 1
    21    2   19 1
    22    3   20 1
    23    4   21 1
    24    5   22 1
    25    6   23 1
    26   15   24 1
    27   16   25 1
    28   16   26 1
    29   16   27 1
