@<TRIPOS>MOLECULE
*****
   40    41     0     0     0
SMALL
USER_CHARGES

@<TRIPOS>ATOM
      1 C1          2.2841    3.7913   -0.1813 C.ar      1 <0>        -0.1500
      2 C2          0.0000    4.0016    0.5772 C.ar      1 <0>        -0.1500
      3 C3          0.9495    3.3903   -0.2415 C.ar      1 <0>        -0.1435
      4 C4          2.6693    4.8036    0.6977 C.ar      1 <0>         0.0825
      5 C5          0.3851    5.0140    1.4562 C.ar      1 <0>         0.0825
      6 C6          1.7198    5.4149    1.5164 C.ar      1 <0>         0.0825
      7 C7          0.3073    0.9924   -0.4960 C.2       1 <0>        -0.1238
      8 C8         -0.8954    0.4337   -0.2249 C.2       1 <0>         0.2477
      9 C9          1.5069    0.2058   -0.0475 C.2       1 <0>         0.4856
     10 C10        -0.0472   -1.4454    0.8000 C.2       1 <0>         0.5500
     11 C11         4.8819    4.5101   -0.1231 C.3       1 <0>         0.2800
     12 C12        -1.8935    5.1342    2.1265 C.3       1 <0>         0.2800
     13 C13        -3.2138    0.4172   -0.2694 C.3       1 <0>         0.2800
     14 C14         0.5340    2.2990   -1.1895 C.3       1 <0>         0.2817
     15 N1         -1.1080   -0.7776    0.4182 N.2       1 <0>        -0.6210
     16 N2          2.7090    0.6527   -0.2588 N.2       1 <0>        -0.8500
     17 N3          1.2366   -0.9880    0.5850 N.pl3     1 <0>        -0.5000
     18 N4         -0.1112   -2.6528    1.4444 N.pl3     1 <0>        -0.8500
     19 O1          2.0962    6.4044    2.3756 O.3       1 <0>        -0.5325
     20 O2          3.9760    5.1858    0.7468 O.3       1 <0>        -0.3625
     21 O3         -0.5522    5.6030    2.2503 O.3       1 <0>        -0.3625
     22 O4         -2.0417    1.1103   -0.6131 O.3       1 <0>        -0.3567
     23 H1          3.0262    3.3163   -0.8186 H         1 <0>         0.1500
     24 H2         -1.0410    3.6909    0.5322 H         1 <0>         0.1500
     25 H3          5.8891    4.9104    0.0162 H         1 <0>         0.0000
     26 H4          4.5640    4.6474   -1.1597 H         1 <0>         0.0000
     27 H5          4.8791    3.4447    0.1187 H         1 <0>         0.0000
     28 H6         -2.5383    5.6868    2.8143 H         1 <0>         0.0000
     29 H7         -1.9296    4.0661    2.3550 H         1 <0>         0.0000
     30 H8         -2.2338    5.2972    1.1012 H         1 <0>         0.0000
     31 H9         -4.0855    0.9897   -0.5957 H         1 <0>         0.0000
     32 H10        -3.2463    0.2688    0.8129 H         1 <0>         0.0000
     33 H11        -3.2114   -0.5547   -0.7685 H         1 <0>         0.0000
     34 H12        -0.3834    2.5929   -1.7103 H         1 <0>         0.0000
     35 H13         1.2929    2.1624   -1.9665 H         1 <0>         0.0000
     36 H14         3.3799   -0.0201    0.1167 H         1 <0>         0.4000
     37 H15         2.0153   -1.5555    0.9067 H         1 <0>         0.4000
     38 H16        -1.0072   -3.0405    1.6310 H         1 <0>         0.4000
     39 H17         0.7406   -3.0960    1.7012 H         1 <0>         0.4000
     40 H18         1.3278    6.7261    2.8719 H         1 <0>         0.4500
@<TRIPOS>BOND
     1    1    3 ar
     2    1    4 ar
     3    2    3 ar
     4    2    5 ar
     5    3   14 1
     6    4    6 ar
     7    4   20 1
     8    5    6 ar
     9    5   21 1
    10    6   19 1
    11    7    8 2
    12    7    9 1
    13    7   14 1
    14    8   15 1
    15    8   22 1
    16    9   16 2
    17    9   17 1
    18   10   15 2
    19   10   17 1
    20   10   18 1
    21   11   20 1
    22   12   21 1
    23   13   22 1
    24    1   23 1
    25    2   24 1
    26   11   25 1
    27   11   26 1
    28   11   27 1
    29   12   28 1
    30   12   29 1
    31   12   30 1
    32   13   31 1
    33   13   32 1
    34   13   33 1
    35   14   34 1
    36   14   35 1
    37   16   36 1
    38   17   37 1
    39   18   38 1
    40   18   39 1
    41   19   40 1
