@<TRIPOS>MOLECULE
*****
   48    51     0     0     0
SMALL
USER_CHARGES

@<TRIPOS>ATOM
      1 C1         -3.3925   -6.4991    6.2627 C.ar      1 <0>        -0.1500
      2 C2         -4.5179   -6.1241    5.5032 C.ar      1 <0>        -0.1500
      3 C3         -2.0971   -6.3925    5.7399 C.ar      1 <0>        -0.1500
      4 C4         -4.3722   -5.6346    4.2057 C.ar      1 <0>        -0.1500
      5 C5          4.8684   -1.4790   -2.3109 C.ar      1 <0>         0.1600
      6 C6          5.6910   -3.6455   -2.6041 C.ar      1 <0>         0.1600
      7 C7          1.3701   -2.3927   -2.3239 C.ar      1 <0>         0.2110
      8 C8          4.6679   -2.7453   -2.8214 C.ar      1 <0>        -0.1435
      9 C9          2.2389   -3.4074   -2.6931 C.ar      1 <0>        -0.1435
     10 C10        -1.9509   -5.9080    4.4555 C.ar      1 <0>         0.1000
     11 C11        -3.0849   -5.5413    3.7200 C.ar      1 <0>         0.3640
     12 C12         1.9651   -4.6770   -2.2086 C.ar      1 <0>         0.3925
     13 C13         6.9028   -2.0767   -1.4917 C.ar      1 <0>         0.7025
     14 C14         0.1295   -3.9254   -1.1065 C.ar      1 <0>         0.7725
     15 C15        -1.2269   -5.1893    2.4497 C.2       1 <0>         0.4560
     16 C16        -0.5291   -4.8262    1.3681 C.2       1 <0>        -0.0490
     17 C17         0.5110   -5.9804    4.1590 C.3       1 <0>         0.3691
     18 C18         8.1307   -0.3974   -0.3393 C.3       1 <0>         0.2800
     19 C19         3.4045   -3.1235   -3.5717 C.3       1 <0>         0.2870
     20 N1          5.9780   -1.1089   -1.6384 N.ar      1 <0>        -0.6200
     21 N2          6.8267   -3.3439   -1.9410 N.ar      1 <0>        -0.6200
     22 N3          0.9171   -4.9759   -1.4108 N.ar      1 <0>        -0.6200
     23 N4          0.3252   -2.6714   -1.5327 N.ar      1 <0>        -0.1790
     24 N5         -0.8184   -5.6912    3.6778 N.pl3     1 <0>        -0.5691
     25 N6         -2.6721   -5.0622    2.3970 N.4       1 <0>        -0.6200
     26 O1          2.7918   -5.7192   -2.5406 O.3       1 <0>        -0.5325
     27 O2          8.0485   -1.7342   -0.8120 O.3       1 <0>        -0.3625
     28 S1         -1.2869   -4.2218   -0.0593 S.3       1 <0>        -0.2025
     29 H1         -3.5332   -6.8778    7.2720 H         1 <0>         0.1500
     30 H2         -5.5103   -6.2185    5.9360 H         1 <0>         0.1500
     31 H3         -1.2431   -6.6863    6.3403 H         1 <0>         0.1500
     32 H4         -5.2321   -5.3445    3.6143 H         1 <0>         0.1500
     33 H5          4.1230   -0.6987   -2.4278 H         1 <0>         0.1500
     34 H6          5.6303   -4.6671   -2.9662 H         1 <0>         0.1500
     35 H7          1.4674   -1.3603   -2.6296 H         1 <0>         0.1500
     36 H8          0.5516   -4.9085    1.3745 H         1 <0>         0.1500
     37 H9          0.7757   -7.0176    3.9057 H         1 <0>         0.0000
     38 H10         1.2290   -5.2933    3.6875 H         1 <0>         0.0000
     39 H11         0.5419   -5.8505    5.2509 H         1 <0>         0.0000
     40 H12         9.0811   -0.2515    0.1799 H         1 <0>         0.0000
     41 H13         7.2979   -0.1984    0.3400 H         1 <0>         0.0000
     42 H14         8.0748    0.2848   -1.1908 H         1 <0>         0.0000
     43 H15         3.1657   -2.3178   -4.2904 H         1 <0>         0.0000
     44 H16         3.6251   -3.9910   -4.2211 H         1 <0>         0.0000
     45 H17        -0.3195   -1.9332   -1.2556 H         1 <0>         0.4570
     46 H18        -3.0952   -5.6532    1.6696 H         1 <0>         0.4500
     47 H19        -2.9795   -4.0889    2.2722 H         1 <0>         0.4500
     48 H20         2.4715   -6.5337   -2.1293 H         1 <0>         0.4500
@<TRIPOS>BOND
     1    1    2 ar
     2    1    3 ar
     3    2    4 ar
     4    3   10 ar
     5    4   11 ar
     6    5    8 ar
     7    5   20 ar
     8    6    8 ar
     9    6   21 ar
    10    7    9 ar
    11    7   23 ar
    12    8   19 1
    13    9   12 ar
    14    9   19 1
    15   10   11 ar
    16   10   24 1
    17   11   25 1
    18   12   22 ar
    19   12   26 1
    20   13   20 ar
    21   13   21 ar
    22   13   27 1
    23   14   22 ar
    24   14   23 ar
    25   14   28 1
    26   15   16 2
    27   15   24 1
    28   15   25 1
    29   16   28 1
    30   17   24 1
    31   18   27 1
    32    1   29 1
    33    2   30 1
    34    3   31 1
    35    4   32 1
    36    5   33 1
    37    6   34 1
    38    7   35 1
    39   16   36 1
    40   17   37 1
    41   17   38 1
    42   17   39 1
    43   18   40 1
    44   18   41 1
    45   18   42 1
    46   19   43 1
    47   19   44 1
    48   23   45 1
    49   25   46 1
    50   25   47 1
    51   26   48 1
