@<TRIPOS>MOLECULE
*****
   38    39     0     0     0
SMALL
USER_CHARGES

@<TRIPOS>ATOM
      1 C1          1.5990   -3.5492    0.6869 C.ar      1 <0>        -0.1500
      2 C2          0.8930   -3.2406    2.9766 C.ar      1 <0>        -0.1500
      3 C3          0.6781   -3.0556    1.6109 C.ar      1 <0>        -0.1435
      4 C4          2.7348   -4.2279    1.1285 C.ar      1 <0>         0.0825
      5 C5          2.0288   -3.9193    3.4183 C.ar      1 <0>         0.0825
      6 C6          2.9497   -4.4129    2.4942 C.ar      1 <0>         0.0825
      7 C7         -1.7803   -3.1615    1.1962 C.2       1 <0>        -0.1238
      8 C8         -2.7794   -3.0804    2.0908 C.2       1 <0>        -0.1233
      9 C9         -1.9898   -4.2260    0.1827 C.2       1 <0>         0.6466
     10 C10        -3.9977   -4.7411    1.2263 C.2       1 <0>         0.0100
     11 C11         3.3317   -4.4733   -1.1604 C.3       1 <0>         0.2800
     12 C12         1.2375   -3.5576    5.6317 C.3       1 <0>         0.2800
     13 C13        -3.2893   -0.9054    2.7125 C.3       1 <0>         0.2800
     14 C14        -0.5479   -2.3226    1.1344 C.3       1 <0>         0.2817
     15 N1         -3.9070   -3.8163    2.1816 N.2       1 <0>        -0.5800
     16 N2         -3.1412   -4.9734    0.2783 N.2       1 <0>        -0.6610
     17 N3         -5.0986   -5.4775    1.2939 N.2       1 <0>        -0.9300
     18 N4         -1.1556   -4.4799   -0.7697 N.2       1 <0>        -0.8500
     19 O1          4.0599   -5.0763    2.9259 O.3       1 <0>        -0.5325
     20 O2          3.6264   -4.7051    0.2156 O.3       1 <0>        -0.3625
     21 O3          2.2269   -4.0930    4.7550 O.3       1 <0>        -0.3625
     22 O4         -2.7028   -2.1246    3.0907 O.3       1 <0>        -0.3567
     23 H1          1.4338   -3.4061   -0.3783 H         1 <0>         0.1500
     24 H2          0.1766   -2.8568    3.6991 H         1 <0>         0.1500
     25 H3          4.1215   -4.9043   -1.7806 H         1 <0>         0.0000
     26 H4          3.2571   -3.3981   -1.3419 H         1 <0>         0.0000
     27 H5          2.3791   -4.9491   -1.4050 H         1 <0>         0.0000
     28 H6          1.5168   -3.7652    6.6675 H         1 <0>         0.0000
     29 H7          0.2678   -4.0088    5.4071 H         1 <0>         0.0000
     30 H8          1.1777   -2.4769    5.4824 H         1 <0>         0.0000
     31 H9         -3.2028   -0.1886    3.5327 H         1 <0>         0.0000
     32 H10        -4.3416   -1.0673    2.4654 H         1 <0>         0.0000
     33 H11        -2.7668   -0.5166    1.8352 H         1 <0>         0.0000
     34 H12        -0.6921   -1.4198    1.7397 H         1 <0>         0.0000
     35 H13        -0.4011   -1.9734    0.1058 H         1 <0>         0.0000
     36 H14        -5.0267   -6.2335    0.6092 H         1 <0>         0.1500
     37 H15        -1.5174   -5.2526   -1.3368 H         1 <0>         0.4000
     38 H16         4.5978   -5.3551    2.1688 H         1 <0>         0.4500
@<TRIPOS>BOND
     1    1    3 ar
     2    1    4 ar
     3    2    3 ar
     4    2    5 ar
     5    3   14 1
     6    4    6 ar
     7    4   20 1
     8    5    6 ar
     9    5   21 1
    10    6   19 1
    11    7    8 2
    12    7    9 1
    13    7   14 1
    14    8   15 1
    15    8   22 1
    16    9   16 1
    17    9   18 2
    18   10   15 1
    19   10   16 2
    20   10   17 1
    21   11   20 1
    22   12   21 1
    23   13   22 1
    24    1   23 1
    25    2   24 1
    26   11   25 1
    27   11   26 1
    28   11   27 1
    29   12   28 1
    30   12   29 1
    31   12   30 1
    32   13   31 1
    33   13   32 1
    34   13   33 1
    35   14   34 1
    36   14   35 1
    37   17   36 1
    38   18   37 1
    39   19   38 1
