@<TRIPOS>MOLECULE
*****
   28    29     0     0     0
SMALL
USER_CHARGES

@<TRIPOS>ATOM
      1 C1         -0.9894    0.0077    7.0423 C.1       1 <0>         0.1530
      2 C2          0.5359   -5.4681    1.7002 C.2       1 <0>         0.2470
      3 C3         -0.5459   -5.6572    0.8735 C.2       1 <0>        -0.1400
      4 C4         -0.3158   -3.3612    1.7180 C.2       1 <0>         0.6180
      5 C5         -0.7923    0.3985    4.7155 C.2       1 <0>        -0.1500
      6 C6         -0.6514   -0.0664    3.4672 C.2       1 <0>        -0.1356
      7 C7         -0.6133   -2.4490    4.4081 C.2       1 <0>        -0.1356
      8 C8         -0.8505   -0.5056    5.8514 C.2       1 <0>         0.0650
      9 C9         -0.7547   -1.9459    5.6450 C.2       1 <0>         0.1400
     10 C10        -0.5531   -1.5313    3.2379 C.2       1 <0>         0.3712
     11 C11         1.5037   -6.4416    2.1012 C.2       1 <0>         0.8060
     12 C12        -1.0116   -6.8755    0.1798 C.3       1 <0>         0.1800
     13 N1         -1.1228    0.5008    8.1869 N.1       1 <0>        -0.2180
     14 N2          0.6275   -4.1699    2.1503 N.pl3     1 <0>        -0.1170
     15 N3         -0.4183   -1.9974    2.0489 N.pl3     1 <0>        -0.0440
     16 O1          1.5284   -7.6441    1.7624 O.2       1 <0>        -0.5700
     17 O2          2.4682   -5.9392    2.9356 O.3       1 <0>        -0.6500
     18 S1         -1.4124   -4.1820    0.6935 S.3       1 <0>        -0.0800
     19 Cl1        -0.8222   -3.0334    6.9927 Cl        1 <0>        -0.1400
     20 H1         -0.8648    1.4687    4.8862 H         1 <0>         0.1500
     21 H2         -0.6081    0.6086    2.6195 H         1 <0>         0.1500
     22 H3         -0.5403   -3.5170    4.2268 H         1 <0>         0.1500
     23 H4         -1.7163   -7.4440    0.8078 H         1 <0>         0.0000
     24 H5         -1.5217   -6.6403   -0.7694 H         1 <0>         0.0000
     25 H6         -0.1760   -7.5469   -0.0804 H         1 <0>         0.0000
     26 H7          1.3357   -3.7811    2.7703 H         1 <0>         0.4500
     27 H8         -0.3813   -1.3386    1.2689 H         1 <0>         0.4000
     28 H9          3.1377   -6.5992    3.2158 H         1 <0>         0.5000
@<TRIPOS>BOND
     1    1    8 2
     2    1   13 2
     3    2    3 2
     4    2   11 1
     5    2   14 1
     6    3   12 1
     7    3   18 1
     8    4   14 2
     9    4   15 1
    10    4   18 1
    11    5    6 2
    12    5    8 1
    13    6   10 1
    14    7    9 2
    15    7   10 1
    16    8    9 1
    17    9   19 1
    18   10   15 2
    19   11   16 2
    20   11   17 1
    21    5   20 1
    22    6   21 1
    23    7   22 1
    24   12   23 1
    25   12   24 1
    26   12   25 1
    27   14   26 1
    28   15   27 1
    29   17   28 1
