@<TRIPOS>MOLECULE
*****
   46    49     0     0     0
SMALL
USER_CHARGES

@<TRIPOS>ATOM
      1 C1          1.0228   -4.3811   -5.5427 C.ar      1 <0>        -0.1500
      2 C2         -0.0113   -3.7959   -6.3012 C.ar      1 <0>        -0.1500
      3 C3          0.9730   -4.3989   -4.1466 C.ar      1 <0>        -0.1500
      4 C4         -1.1229   -3.2124   -5.6840 C.ar      1 <0>        -0.1500
      5 C5         -2.3831   -2.4809    5.9622 C.ar      1 <0>         0.1600
      6 C6         -2.6812   -0.1765    6.2018 C.ar      1 <0>         0.1600
      7 C7         -3.1733   -1.3745    5.7255 C.ar      1 <0>        -0.1435
      8 C8         -0.1239   -3.8221   -3.5475 C.ar      1 <0>         0.1000
      9 C9         -1.1715   -3.2293   -4.3058 C.ar      1 <0>         0.1000
     10 C10        -0.8309   -1.2069    7.0275 C.ar      1 <0>         0.7025
     11 C11        -4.2065   -2.7867    2.8795 C.2       1 <0>         0.0210
     12 C12        -4.3127   -1.6099    3.5179 C.2       1 <0>        -0.1238
     13 C13        -4.2504   -0.3705    2.6906 C.2       1 <0>         0.6156
     14 C14        -1.6685   -3.0334   -2.1099 C.2       1 <0>         0.2000
     15 C15        -3.9922   -1.8828    0.8246 C.2       1 <0>         0.6510
     16 C16        -2.2775   -2.7463   -0.9489 C.2       1 <0>        -0.0490
     17 C17        -3.3384   -2.0832   -3.8518 C.3       1 <0>         0.3691
     18 C18         1.0838   -2.3344    7.8750 C.3       1 <0>         0.2800
     19 C19        -4.4858   -1.4683    4.9946 C.3       1 <0>         0.2817
     20 N1         -1.2019   -2.4331    6.6124 N.ar      1 <0>        -0.6200
     21 N2         -1.5095   -0.0558    6.8597 N.ar      1 <0>        -0.6200
     22 N3         -4.0445   -2.9671    1.5283 N.2       1 <0>        -0.6210
     23 N4         -0.4435   -3.6937   -2.1932 N.pl3     1 <0>        -0.6000
     24 N5         -4.0868   -0.6090    1.3389 N.am      1 <0>        -0.4900
     25 N6         -2.1327   -2.7354   -3.4056 N.pl3     1 <0>        -0.5691
     26 O1         -4.3387    0.7476    3.1882 O.2       1 <0>        -0.5700
     27 O2          0.3682   -1.1207    7.6959 O.3       1 <0>        -0.3625
     28 S1         -3.7924   -1.9283   -0.8843 S.3       1 <0>        -0.2420
     29 H1          1.8725   -4.8253   -6.0551 H         1 <0>         0.1500
     30 H2          0.0590   -3.7984   -7.3862 H         1 <0>         0.1500
     31 H3          1.7695   -4.8497   -3.5662 H         1 <0>         0.1500
     32 H4         -1.9098   -2.7660   -6.2812 H         1 <0>         0.1500
     33 H5         -2.6809   -3.4693    5.6271 H         1 <0>         0.1500
     34 H6         -3.2279    0.7517    6.0670 H         1 <0>         0.1500
     35 H7         -4.2468   -3.7104    3.4493 H         1 <0>         0.1500
     36 H8         -1.8095   -3.0346   -0.0174 H         1 <0>         0.1500
     37 H9         -4.1333   -2.8319   -3.9844 H         1 <0>         0.0000
     38 H10        -3.6537   -1.3428   -3.1019 H         1 <0>         0.0000
     39 H11        -3.1484   -1.5769   -4.8096 H         1 <0>         0.0000
     40 H12         2.0122   -2.1344    8.4156 H         1 <0>         0.0000
     41 H13         1.3053   -2.7752    6.8998 H         1 <0>         0.0000
     42 H14         0.4693   -3.0272    8.4547 H         1 <0>         0.0000
     43 H15        -5.0571   -2.3226    5.3757 H         1 <0>         0.0000
     44 H16        -5.0964   -0.5822    5.2010 H         1 <0>         0.0000
     45 H17         0.0927   -4.0128   -1.4053 H         1 <0>         0.4000
     46 H18        -4.0349    0.1823    0.7046 H         1 <0>         0.3700
@<TRIPOS>BOND
     1    1    2 ar
     2    1    3 ar
     3    2    4 ar
     4    3    8 ar
     5    4    9 ar
     6    5    7 ar
     7    5   20 ar
     8    6    7 ar
     9    6   21 ar
    10    7   19 1
    11    8    9 ar
    12    8   23 1
    13    9   25 1
    14   10   20 ar
    15   10   21 ar
    16   10   27 1
    17   11   12 2
    18   11   22 1
    19   12   13 1
    20   12   19 1
    21   13   24 am
    22   13   26 2
    23   14   16 2
    24   14   23 1
    25   14   25 1
    26   15   22 2
    27   15   24 1
    28   15   28 1
    29   16   28 1
    30   17   25 1
    31   18   27 1
    32    1   29 1
    33    2   30 1
    34    3   31 1
    35    4   32 1
    36    5   33 1
    37    6   34 1
    38   11   35 1
    39   16   36 1
    40   17   37 1
    41   17   38 1
    42   17   39 1
    43   18   40 1
    44   18   41 1
    45   18   42 1
    46   19   43 1
    47   19   44 1
    48   23   45 1
    49   24   46 1
