@<TRIPOS>MOLECULE
*****
   46    49     0     0     0
SMALL
USER_CHARGES

@<TRIPOS>ATOM
      1 C1         -8.3408   -3.4244   -6.1736 C.ar      1 <0>        -0.1500
      2 C2         -8.4044   -2.0312   -5.9682 C.ar      1 <0>        -0.1500
      3 C3         -7.4952   -4.2295   -5.4064 C.ar      1 <0>        -0.1500
      4 C4         -7.6238   -1.4055   -4.9903 C.ar      1 <0>        -0.1500
      5 C5         -1.3651   -6.4003    4.0641 C.ar      1 <0>         0.1600
      6 C6          0.2067   -7.1980    2.5312 C.ar      1 <0>         0.1600
      7 C7         -2.0152   -3.2794    2.3320 C.ar      1 <0>         0.1600
      8 C8         -0.3896   -6.1085    3.1326 C.ar      1 <0>        -0.1435
      9 C9         -0.9363   -4.0005    1.8627 C.ar      1 <0>        -0.1435
     10 C10        -6.7303   -3.6057   -4.4468 C.ar      1 <0>         0.1000
     11 C11        -6.7885   -2.2003   -4.2336 C.ar      1 <0>         0.1000
     12 C12        -0.7963   -4.0405    0.4905 C.ar      1 <0>         0.3925
     13 C13        -1.0825   -8.6317    3.7353 C.ar      1 <0>         0.7025
     14 C14        -2.6512   -2.7561    0.2134 C.ar      1 <0>         0.7215
     15 C15        -5.3048   -3.0913   -2.7801 C.2       1 <0>         0.2000
     16 C16        -4.3946   -3.2525   -1.8073 C.2       1 <0>        -0.0490
     17 C17        -5.7227   -0.5325   -2.7178 C.3       1 <0>         0.3691
     18 C18        -2.4535  -10.0877    5.0221 C.3       1 <0>         0.2800
     19 C19         0.0014   -4.6819    2.7909 C.3       1 <0>         0.2870
     20 N1         -1.7379   -7.6550    4.3910 N.ar      1 <0>        -0.6200
     21 N2         -0.1163   -8.4780    2.8098 N.ar      1 <0>        -0.6200
     22 N3         -2.8958   -2.6423    1.5327 N.ar      1 <0>        -0.6200
     23 N4         -1.6384   -3.4276   -0.3671 N.ar      1 <0>        -0.6200
     24 N5         -5.8100   -4.1431   -3.5430 N.pl3     1 <0>        -0.6000
     25 N6         -5.8956   -1.8820   -3.1946 N.pl3     1 <0>        -0.5691
     26 O1          0.2461   -4.7328   -0.0675 O.3       1 <0>        -0.5325
     27 O2         -1.4360   -9.9244    4.0448 O.3       1 <0>        -0.3625
     28 S1         -3.7924   -1.9283   -0.8843 S.3       1 <0>        -0.2025
     29 H1         -8.9611   -3.8777   -6.9428 H         1 <0>         0.1500
     30 H2         -9.0727   -1.4336   -6.5834 H         1 <0>         0.1500
     31 H3         -7.4487   -5.3003   -5.5664 H         1 <0>         0.1500
     32 H4         -7.6836   -0.3330   -4.8448 H         1 <0>         0.1500
     33 H5         -1.8945   -5.6137    4.5922 H         1 <0>         0.1500
     34 H6          0.9857   -7.0748    1.7852 H         1 <0>         0.1500
     35 H7         -2.2139   -3.1867    3.3951 H         1 <0>         0.1500
     36 H8         -4.0210   -4.2435   -1.5875 H         1 <0>         0.1500
     37 H9         -6.4340   -0.3375   -1.9017 H         1 <0>         0.0000
     38 H10        -4.6951   -0.4035   -2.3471 H         1 <0>         0.0000
     39 H11        -5.9069    0.1735   -3.5410 H         1 <0>         0.0000
     40 H12        -2.6423  -11.1526    5.1783 H         1 <0>         0.0000
     41 H13        -3.3667   -9.5905    4.6852 H         1 <0>         0.0000
     42 H14        -2.1208   -9.6375    5.9604 H         1 <0>         0.0000
     43 H15         0.1069   -4.1108    3.7328 H         1 <0>         0.0000
     44 H16         1.0282   -4.6873    2.3786 H         1 <0>         0.0000
     45 H17        -5.5456   -5.1073   -3.4398 H         1 <0>         0.4000
     46 H18         0.2051   -4.6653   -1.0317 H         1 <0>         0.4500
@<TRIPOS>BOND
     1    1    2 ar
     2    1    3 ar
     3    2    4 ar
     4    3   10 ar
     5    4   11 ar
     6    5    8 ar
     7    5   20 ar
     8    6    8 ar
     9    6   21 ar
    10    7    9 ar
    11    7   22 ar
    12    8   19 1
    13    9   12 ar
    14    9   19 1
    15   10   11 ar
    16   10   24 1
    17   11   25 1
    18   12   23 ar
    19   12   26 1
    20   13   20 ar
    21   13   21 ar
    22   13   27 1
    23   14   22 ar
    24   14   23 ar
    25   14   28 1
    26   15   16 2
    27   15   24 1
    28   15   25 1
    29   16   28 1
    30   17   25 1
    31   18   27 1
    32    1   29 1
    33    2   30 1
    34    3   31 1
    35    4   32 1
    36    5   33 1
    37    6   34 1
    38    7   35 1
    39   16   36 1
    40   17   37 1
    41   17   38 1
    42   17   39 1
    43   18   40 1
    44   18   41 1
    45   18   42 1
    46   19   43 1
    47   19   44 1
    48   24   45 1
    49   26   46 1
