@<TRIPOS>MOLECULE
*****
   31    33     0     0     0
SMALL
USER_CHARGES

@<TRIPOS>ATOM
      1 C1          1.3309    2.6133    0.1261 C.ar      1 <0>        -0.1500
      2 C2         -5.9929   -1.2546   -1.8075 C.ar      1 <0>        -0.1500
      3 C3         -5.0315   -1.0269   -2.7921 C.ar      1 <0>        -0.1500
      4 C4          2.3460    1.7559    0.5475 C.ar      1 <0>        -0.1500
      5 C5          0.0753    2.1066   -0.2166 C.ar      1 <0>        -0.1500
      6 C6         -5.7878   -0.7842   -0.5104 C.ar      1 <0>        -0.1500
      7 C7         -3.8649   -0.3289   -2.4796 C.ar      1 <0>        -0.1500
      8 C8          2.1116    0.3841    0.6296 C.ar      1 <0>        -0.1500
      9 C9         -0.1647    0.7316   -0.1362 C.ar      1 <0>         0.0862
     10 C10        -4.6213   -0.0863   -0.1979 C.ar      1 <0>        -0.1435
     11 C11        -3.6598    0.1414   -1.1825 C.ar      1 <0>         0.1790
     12 C12         0.8588   -0.1356    0.2894 C.ar      1 <0>         0.1000
     13 C13        -1.4848    0.1183   -0.4871 C.2       1 <0>         0.5748
     14 C14        -0.6449   -1.9561    0.0178 C.2       1 <0>         0.7090
     15 C15        -4.4234    0.4061    1.1985 C.3       1 <0>         0.1435
     16 N1         -1.6539   -1.2507   -0.3848 N.2       1 <0>        -0.6610
     17 N2         -2.4790    0.8415   -0.8858 N.2       1 <0>        -0.6290
     18 N3          0.5983   -1.5070    0.3633 N.pl3     1 <0>        -0.5500
     19 Cl1        -0.8619   -3.6550    0.1413 Cl        1 <0>        -0.2090
     20 H1          1.5175    3.6819    0.0626 H         1 <0>         0.1500
     21 H2         -6.9010   -1.7985   -2.0505 H         1 <0>         0.1500
     22 H3         -5.1906   -1.3943   -3.8017 H         1 <0>         0.1500
     23 H4          3.3198    2.1567    0.8128 H         1 <0>         0.1500
     24 H5         -0.6993    2.7944   -0.5434 H         1 <0>         0.1500
     25 H6         -6.5433   -0.9663    0.2493 H         1 <0>         0.1500
     26 H7         -3.1217   -0.1569   -3.2541 H         1 <0>         0.1500
     27 H8          2.9105   -0.2740    0.9613 H         1 <0>         0.1500
     28 H9         -3.9099   -0.3532    1.7995 H         1 <0>         0.0000
     29 H10        -3.8266    1.3263    1.2131 H         1 <0>         0.0000
     30 H11        -5.3830    0.6400    1.6756 H         1 <0>         0.0000
     31 H12         1.3313   -2.1355    0.6673 H         1 <0>         0.4000
@<TRIPOS>BOND
     1    1    4 ar
     2    1    5 ar
     3    2    3 ar
     4    2    6 ar
     5    3    7 ar
     6    4    8 ar
     7    5    9 ar
     8    6   10 ar
     9    7   11 ar
    10    8   12 ar
    11    9   12 ar
    12    9   13 1
    13   10   11 ar
    14   10   15 1
    15   11   17 1
    16   12   18 1
    17   13   16 1
    18   13   17 2
    19   14   16 2
    20   14   18 1
    21   14   19 1
    22    1   20 1
    23    2   21 1
    24    3   22 1
    25    4   23 1
    26    5   24 1
    27    6   25 1
    28    7   26 1
    29    8   27 1
    30   15   28 1
    31   15   29 1
    32   15   30 1
    33   18   31 1
