@<TRIPOS>MOLECULE
*****
   46    49     0     0     0
SMALL
USER_CHARGES

@<TRIPOS>ATOM
      1 C1         -0.6202    2.3620    8.5611 C.ar      1 <0>        -0.1500
      2 C2         -1.4268    1.7204    7.6183 C.ar      1 <0>        -0.1500
      3 C3          0.7475    2.0754    8.6549 C.ar      1 <0>        -0.1500
      4 C4         -0.8984    0.7717    6.7366 C.ar      1 <0>        -0.1500
      5 C5          3.9118    0.7061   12.9430 C.ar      1 <0>         0.1600
      6 C6          2.0238   -0.4832   13.6337 C.ar      1 <0>         0.1600
      7 C7          4.8494   -1.5964   10.3008 C.ar      1 <0>         0.1600
      8 C8          3.2825   -0.5155   13.0691 C.ar      1 <0>        -0.1435
      9 C9          3.8597   -2.0460   11.1510 C.ar      1 <0>        -0.1435
     10 C10         1.2951    1.1247    7.7770 C.ar      1 <0>         0.2272
     11 C11         0.4660    0.5022    6.8481 C.ar      1 <0>        -0.1516
     12 C12         2.8161   -2.7190   10.5493 C.ar      1 <0>         0.3925
     13 C13         2.5536   -0.2125    6.6873 C.2       1 <0>         0.0065
     14 C14         2.1326    1.7750   13.8699 C.ar      1 <0>         0.7025
     15 C15         3.7611   -2.4544    8.4989 C.ar      1 <0>         0.7215
     16 C16         0.9099   -1.2268    5.0847 C.3       1 <0>         0.2556
     17 C17         2.2990    4.1365   14.0970 C.3       1 <0>         0.2800
     18 C18         3.9321   -1.8105   12.6153 C.3       1 <0>         0.2870
     19 C19         3.7030   -0.9911    6.1820 C.3       1 <0>         0.4100
     20 N1          3.3641    1.8754   13.3343 N.ar      1 <0>        -0.6200
     21 N2          1.4164    0.6484   14.0470 N.ar      1 <0>        -0.6200
     22 N3          4.8320   -1.7839    8.9648 N.ar      1 <0>        -0.6200
     23 N4          2.5881    0.6682    7.6620 N.2       1 <0>        -0.5653
     24 N5          2.7342   -2.9418    9.2211 N.ar      1 <0>        -0.6200
     25 N6          1.2974   -0.3478    6.1649 N.pl3     1 <0>         0.0476
     26 O1          1.7870   -3.2024   11.3138 O.3       1 <0>        -0.5325
     27 O2          1.5438    2.9479   14.2817 O.3       1 <0>        -0.3625
     28 S1          3.6961   -2.7227    6.7558 S.3       1 <0>        -0.3315
     29 H1         -1.0596    3.0958    9.2319 H         1 <0>         0.1500
     30 H2         -2.4857    1.9623    7.5683 H         1 <0>         0.1500
     31 H3          1.3654    2.5801    9.3904 H         1 <0>         0.1500
     32 H4         -1.5250    0.2748    6.0045 H         1 <0>         0.1500
     33 H5          4.9040    0.7880   12.5106 H         1 <0>         0.1500
     34 H6          1.4460   -1.3910   13.7770 H         1 <0>         0.1500
     35 H7          5.7132   -1.0558   10.6746 H         1 <0>         0.1500
     36 H8          1.0251   -0.6786    4.1459 H         1 <0>         0.0000
     37 H9          1.5490   -2.1141    5.0903 H         1 <0>         0.0000
     38 H10        -0.1304   -1.5338    5.2242 H         1 <0>         0.0000
     39 H11         1.7266    4.9931   14.4611 H         1 <0>         0.0000
     40 H12         2.5282    4.2624   13.0358 H         1 <0>         0.0000
     41 H13         3.2308    4.0570   14.6620 H         1 <0>         0.0000
     42 H14         4.9824   -1.8180   12.9635 H         1 <0>         0.0000
     43 H15         3.4720   -2.6490   13.1716 H         1 <0>         0.0000
     44 H16         3.7308   -1.0032    5.0773 H         1 <0>         0.0000
     45 H17         4.6629   -0.5400    6.4921 H         1 <0>         0.0000
     46 H18         1.1392   -3.6456   10.7483 H         1 <0>         0.4500
@<TRIPOS>BOND
     1    1    2 ar
     2    1    3 ar
     3    2    4 ar
     4    3   10 ar
     5    4   11 ar
     6    5    8 ar
     7    5   20 ar
     8    6    8 ar
     9    6   21 ar
    10    7    9 ar
    11    7   22 ar
    12    8   18 1
    13    9   12 ar
    14    9   18 1
    15   10   11 ar
    16   10   23 1
    17   11   25 1
    18   12   24 ar
    19   12   26 1
    20   13   19 1
    21   13   23 2
    22   13   25 1
    23   14   20 ar
    24   14   21 ar
    25   14   27 1
    26   15   22 ar
    27   15   24 ar
    28   15   28 1
    29   16   25 1
    30   17   27 1
    31   19   28 1
    32    1   29 1
    33    2   30 1
    34    3   31 1
    35    4   32 1
    36    5   33 1
    37    6   34 1
    38    7   35 1
    39   16   36 1
    40   16   37 1
    41   16   38 1
    42   17   39 1
    43   17   40 1
    44   17   41 1
    45   18   42 1
    46   18   43 1
    47   19   44 1
    48   19   45 1
    49   26   46 1
