@<TRIPOS>MOLECULE
*****
   39    41     0     0     0
SMALL
USER_CHARGES

@<TRIPOS>ATOM
      1 C1          3.5562    3.0986   -1.9068 C.ar      1 <0>        -0.1500
      2 C2          4.2705    3.6365   -0.8288 C.ar      1 <0>        -0.1500
      3 C3          2.2942    3.5862    0.5949 C.ar      1 <0>        -0.1500
      4 C4          2.1944    2.8022   -1.7276 C.ar      1 <0>         0.2272
      5 C5          1.6027    3.0512   -0.4924 C.ar      1 <0>        -0.1516
      6 C6          3.6487    3.8752    0.3989 C.ar      1 <0>         0.1110
      7 C7          0.1553    2.2033   -1.9350 C.2       1 <0>         0.4975
      8 C8          0.4812    1.9844    2.4270 C.3       1 <0>         0.0000
      9 C9         -1.9347    1.3697    2.1146 C.3       1 <0>         0.0000
     10 C10         0.4852    1.0591    3.6397 C.3       1 <0>         0.2800
     11 C11        -1.7928    0.4802    3.3459 C.3       1 <0>         0.2800
     12 C12        -0.5899    1.5871    1.3885 C.3       1 <0>         0.0000
     13 C13        -0.7430    2.7160    0.3537 C.3       1 <0>         0.2556
     14 C14        -0.1677    0.3087    0.6389 C.3       1 <0>         0.2800
     15 N1          1.2800    2.2758   -2.6109 N.2       1 <0>        -0.5653
     16 N2          0.2986    2.6588   -0.6540 N.pl3     1 <0>         0.0476
     17 N3         -1.0857    1.6950   -2.5024 N.4       1 <0>        -0.6610
     18 O1         -0.8087    1.0016    4.2367 O.3       1 <0>        -0.5600
     19 O2         -1.1856   -0.0103   -0.2848 O.3       1 <0>        -0.6800
     20 Br1         4.6550    4.6052    1.8272 Br        1 <0>        -0.1110
     21 H1          4.0483    2.9168   -2.8567 H         1 <0>         0.1500
     22 H2          5.3248    3.8655   -0.9685 H         1 <0>         0.1500
     23 H3          1.7986    3.7664    1.5431 H         1 <0>         0.1500
     24 H4          0.2669    3.0018    2.7808 H         1 <0>         0.0000
     25 H5          1.4782    2.0077    1.9716 H         1 <0>         0.0000
     26 H6         -2.6837    0.9484    1.4337 H         1 <0>         0.0000
     27 H7         -2.3161    2.3447    2.4466 H         1 <0>         0.0000
     28 H8          0.8170    0.0471    3.3835 H         1 <0>         0.0000
     29 H9          1.1794    1.4452    4.3934 H         1 <0>         0.0000
     30 H10        -2.7441    0.4485    3.8871 H         1 <0>         0.0000
     31 H11        -1.5380   -0.5516    3.0802 H         1 <0>         0.0000
     32 H12        -0.6949    3.6817    0.8549 H         1 <0>         0.0000
     33 H13        -1.7118    2.6344   -0.1370 H         1 <0>         0.0000
     34 H14        -0.0482   -0.4998    1.3523 H         1 <0>         0.0000
     35 H15         0.7637    0.4938    0.1145 H         1 <0>         0.0000
     36 H16        -0.9886    0.6928   -2.6979 H         1 <0>         0.4500
     37 H17        -1.8661    1.8322   -1.8514 H         1 <0>         0.4500
     38 H18        -1.2954    2.1896   -3.3762 H         1 <0>         0.4500
     39 H19        -0.9100   -0.8186   -0.7529 H         1 <0>         0.4000
@<TRIPOS>BOND
     1    1    2 ar
     2    1    4 ar
     3    2    6 ar
     4    3    5 ar
     5    3    6 ar
     6    4    5 ar
     7    4   15 1
     8    5   16 1
     9    6   20 1
    10    7   15 2
    11    7   16 1
    12    7   17 1
    13    8   10 1
    14    8   12 1
    15    9   11 1
    16    9   12 1
    17   10   18 1
    18   11   18 1
    19   12   13 1
    20   12   14 1
    21   13   16 1
    22   14   19 1
    23    1   21 1
    24    2   22 1
    25    3   23 1
    26    8   24 1
    27    8   25 1
    28    9   26 1
    29    9   27 1
    30   10   28 1
    31   10   29 1
    32   11   30 1
    33   11   31 1
    34   13   32 1
    35   13   33 1
    36   14   34 1
    37   14   35 1
    38   17   36 1
    39   17   37 1
    40   17   38 1
    41   19   39 1
