@<TRIPOS>MOLECULE
*****
   46    49     0     0     0
SMALL
USER_CHARGES

@<TRIPOS>ATOM
      1 C1         -7.7610   -1.8897    1.4350 C.ar      1 <0>        -0.1500
      2 C2         -7.8525   -3.0008    0.5741 C.ar      1 <0>        -0.1500
      3 C3         -6.5184   -1.4064    1.8650 C.ar      1 <0>        -0.1500
      4 C4         -6.7041   -3.6518    0.1249 C.ar      1 <0>        -0.1500
      5 C5          4.4651   -1.4955    2.7764 C.ar      1 <0>         0.1600
      6 C6          5.0267   -3.6247    3.5557 C.ar      1 <0>         0.1600
      7 C7          4.6335   -2.8357    2.4940 C.ar      1 <0>        -0.1435
      8 C8         -5.3804   -2.0495    1.4212 C.ar      1 <0>         0.1000
      9 C9         -5.4966   -3.1521    0.5654 C.ar      1 <0>         0.3640
     10 C10         5.0438   -1.8290    4.9492 C.ar      1 <0>         0.7025
     11 C11         2.2033   -2.6124    0.2182 C.2       1 <0>         0.0210
     12 C12         2.9522   -3.5567    0.7968 C.2       1 <0>        -0.1238
     13 C13         2.2675   -4.8439    1.1328 C.2       1 <0>         0.3356
     14 C14        -3.2909   -2.7557    0.9745 C.2       1 <0>         0.4560
     15 C15         0.3762   -3.9146    0.2583 C.2       1 <0>         0.3710
     16 C16        -1.9708   -2.9517    0.8873 C.2       1 <0>        -0.0490
     17 C17        -3.5880   -0.7362    2.5242 C.3       1 <0>         0.3691
     18 C18         5.0488    0.0829    6.3636 C.3       1 <0>         0.2800
     19 C19         4.4024   -3.4003    1.1180 C.3       1 <0>         0.2817
     20 N1          4.6623   -0.9562    3.9973 N.ar      1 <0>        -0.6200
     21 N2          5.2418   -3.1528    4.8012 N.ar      1 <0>        -0.6200
     22 N3          0.9680   -4.9555    0.8352 N.2       1 <0>        -0.5600
     23 N4          0.8797   -2.7686   -0.0705 N.2       1 <0>        -0.6210
     24 N5         -4.0329   -1.8096    1.6684 N.pl3     1 <0>        -0.5691
     25 N6         -4.1592   -3.6567    0.2385 N.4       1 <0>        -0.6200
     26 O1          2.9282   -5.7350    1.6650 O.2       1 <0>        -0.5700
     27 O2          5.2557   -1.3135    6.2067 O.3       1 <0>        -0.3625
     28 S1         -1.2869   -4.2218   -0.0593 S.3       1 <0>        -0.2420
     29 H1         -8.6716   -1.3998    1.7709 H         1 <0>         0.1500
     30 H2         -8.8308   -3.3528    0.2579 H         1 <0>         0.1500
     31 H3         -6.4686   -0.5494    2.5279 H         1 <0>         0.1500
     32 H4         -6.7651   -4.5073   -0.5368 H         1 <0>         0.1500
     33 H5          4.1567   -0.7915    2.0100 H         1 <0>         0.1500
     34 H6          5.1867   -4.6919    3.4369 H         1 <0>         0.1500
     35 H7          2.6302   -1.6531   -0.0546 H         1 <0>         0.1500
     36 H8         -1.2946   -2.2967    1.4244 H         1 <0>         0.1500
     37 H9         -3.5113   -1.0997    3.5595 H         1 <0>         0.0000
     38 H10        -2.6028   -0.3822    2.1862 H         1 <0>         0.0000
     39 H11        -4.3105    0.0921    2.4790 H         1 <0>         0.0000
     40 H12         5.2479    0.3673    7.3997 H         1 <0>         0.0000
     41 H13         4.0183    0.3316    6.0979 H         1 <0>         0.0000
     42 H14         5.7333    0.6201    5.7028 H         1 <0>         0.0000
     43 H15         4.8703   -2.7485    0.3712 H         1 <0>         0.0000
     44 H16         4.8981   -4.3726    1.0212 H         1 <0>         0.0000
     45 H17        -4.0737   -4.6325    0.5514 H         1 <0>         0.4500
     46 H18        -4.0114   -3.6065   -0.7779 H         1 <0>         0.4500
@<TRIPOS>BOND
     1    1    2 ar
     2    1    3 ar
     3    2    4 ar
     4    3    8 ar
     5    4    9 ar
     6    5    7 ar
     7    5   20 ar
     8    6    7 ar
     9    6   21 ar
    10    7   19 1
    11    8    9 ar
    12    8   24 1
    13    9   25 1
    14   10   20 ar
    15   10   21 ar
    16   10   27 1
    17   11   12 2
    18   11   23 1
    19   12   13 1
    20   12   19 1
    21   13   22 1
    22   13   26 2
    23   14   16 2
    24   14   24 1
    25   14   25 1
    26   15   22 1
    27   15   23 2
    28   15   28 1
    29   16   28 1
    30   17   24 1
    31   18   27 1
    32    1   29 1
    33    2   30 1
    34    3   31 1
    35    4   32 1
    36    5   33 1
    37    6   34 1
    38   11   35 1
    39   16   36 1
    40   17   37 1
    41   17   38 1
    42   17   39 1
    43   18   40 1
    44   18   41 1
    45   18   42 1
    46   19   43 1
    47   19   44 1
    48   25   45 1
    49   25   46 1
