@<TRIPOS>MOLECULE
*****
   43    44     0     0     0
SMALL
USER_CHARGES

@<TRIPOS>ATOM
      1 C1         -0.2570    4.4409   -0.8047 C.ar      1 <0>        -0.1500
      2 C2         -1.8397    3.1992   -2.1426 C.ar      1 <0>        -0.1500
      3 C3         -0.5875    3.3004   -1.5365 C.ar      1 <0>        -0.1435
      4 C4         -1.1788    5.4802   -0.6788 C.ar      1 <0>        -0.1435
      5 C5         -2.7615    4.2386   -2.0169 C.ar      1 <0>        -0.1435
      6 C6         -2.4310    5.3791   -1.2849 C.ar      1 <0>         0.0825
      7 C7         -0.6835   -0.0287   -1.1292 C.2       1 <0>         0.0210
      8 C8          0.0933    1.0197   -0.7866 C.2       1 <0>        -0.1238
      9 C9          0.6595    0.9654    0.6074 C.2       1 <0>         0.4856
     10 C10        -0.5083   -1.1546    0.8511 C.2       1 <0>         0.5500
     11 C11        -0.8065    6.6933    0.1086 C.3       1 <0>         0.1435
     12 C12        -4.2271    2.7540   -3.4288 C.3       1 <0>         0.0000
     13 C13        -4.3255    5.2533   -3.7113 C.3       1 <0>         0.0000
     14 C14        -5.3258    4.1729   -1.7079 C.3       1 <0>         0.0000
     15 C15         0.4075    2.1779   -1.6720 C.3       1 <0>         0.2817
     16 C16        -4.0968    4.1120   -2.6733 C.3       1 <0>         0.1435
     17 N1         -1.0129   -1.1286   -0.3588 N.2       1 <0>        -0.6210
     18 N2          1.4214    1.9186    1.0519 N.2       1 <0>        -0.8500
     19 N3          0.3052   -0.1506    1.3413 N.pl3     1 <0>        -0.5000
     20 N4         -0.7393   -2.1722    1.7394 N.pl3     1 <0>        -0.8500
     21 O1         -3.3319    6.3957   -1.1625 O.3       1 <0>        -0.5325
     22 H1          0.7192    4.5193   -0.3318 H         1 <0>         0.1500
     23 H2         -2.0955    2.3106   -2.7152 H         1 <0>         0.1500
     24 H3         -1.1236   -0.0504   -2.1226 H         1 <0>         0.1500
     25 H4         -0.3352    7.4389   -0.5423 H         1 <0>         0.0000
     26 H5         -1.6878    7.1468    0.5787 H         1 <0>         0.0000
     27 H6         -0.1075    6.4425    0.9162 H         1 <0>         0.0000
     28 H7         -5.1998    2.6356   -3.9204 H         1 <0>         0.0000
     29 H8         -3.4615    2.6512   -4.2056 H         1 <0>         0.0000
     30 H9         -4.1020    1.9176   -2.7309 H         1 <0>         0.0000
     31 H10        -5.3039    5.1654   -4.1961 H         1 <0>         0.0000
     32 H11        -4.2808    6.2510   -3.2590 H         1 <0>         0.0000
     33 H12        -3.5632    5.2093   -4.4982 H         1 <0>         0.0000
     34 H13        -6.2820    4.0757   -2.2363 H         1 <0>         0.0000
     35 H14        -5.2829    3.3638   -0.9694 H         1 <0>         0.0000
     36 H15        -5.3518    5.1269   -1.1686 H         1 <0>         0.0000
     37 H16         0.4374    1.8410   -2.7154 H         1 <0>         0.0000
     38 H17         1.4168    2.5416   -1.4462 H         1 <0>         0.0000
     39 H18         1.7004    1.6973    2.0099 H         1 <0>         0.4000
     40 H19         0.6606   -0.2366    2.2893 H         1 <0>         0.4000
     41 H20        -1.3180   -2.9270    1.4511 H         1 <0>         0.4000
     42 H21        -0.3195   -2.1172    2.6386 H         1 <0>         0.4000
     43 H22        -2.9557    7.1123   -0.6286 H         1 <0>         0.4500
@<TRIPOS>BOND
     1    1    3 ar
     2    1    4 ar
     3    2    3 ar
     4    2    5 ar
     5    3   15 1
     6    4    6 ar
     7    4   11 1
     8    5    6 ar
     9    5   16 1
    10    6   21 1
    11    7    8 2
    12    7   17 1
    13    8    9 1
    14    8   15 1
    15    9   18 2
    16    9   19 1
    17   10   17 2
    18   10   19 1
    19   10   20 1
    20   12   16 1
    21   13   16 1
    22   14   16 1
    23    1   22 1
    24    2   23 1
    25    7   24 1
    26   11   25 1
    27   11   26 1
    28   11   27 1
    29   12   28 1
    30   12   29 1
    31   12   30 1
    32   13   31 1
    33   13   32 1
    34   13   33 1
    35   14   34 1
    36   14   35 1
    37   14   36 1
    38   15   37 1
    39   15   38 1
    40   18   39 1
    41   19   40 1
    42   20   41 1
    43   20   42 1
    44   21   43 1
