@<TRIPOS>MOLECULE
*****
   26    28     0     0     0
SMALL
USER_CHARGES

@<TRIPOS>ATOM
      1 C1          0.4713    4.8404   -2.9283 C.ar      1 <0>        -0.1500
      2 C2         -0.7662    4.3142   -3.2990 C.ar      1 <0>        -0.1500
      3 C3          1.1691    4.2906   -1.8530 C.ar      1 <0>        -0.1500
      4 C4         -1.3059    3.2383   -2.5943 C.ar      1 <0>        -0.1500
      5 C5          0.6294    3.2146   -1.1483 C.ar      1 <0>        -0.1500
      6 C6         -0.6081    2.6884   -1.5189 C.ar      1 <0>        -0.1435
      7 C7         -0.0179    0.5499    1.2580 C.2       1 <0>        -0.1500
      8 C8          0.3418   -0.5498    0.4298 C.2       1 <0>         0.0144
      9 C9         -0.7439    1.5378    0.7033 C.2       1 <0>         0.0018
     10 C10        -0.0152   -0.6924   -0.8480 C.2       1 <0>         0.2710
     11 C11         1.0941   -1.7630    0.6664 C.2       1 <0>         0.6466
     12 C12        -1.1863    1.5348   -0.7627 C.3       1 <0>         0.6508
     13 N1          0.4610   -1.8670   -1.3751 N.2       1 <0>        -0.1710
     14 N2          1.1112   -2.4995   -0.4977 N.2       1 <0>        -0.2110
     15 N3          1.6705   -2.1462    1.7475 N.2       1 <0>        -0.8500
     16 N4         -0.7738    0.2965   -1.4428 N.pl3     1 <0>        -0.8691
     17 Cl1        -1.2808    2.8694    1.6693 Cl        1 <0>        -0.1400
     18 H1          0.8920    5.6774   -3.4780 H         1 <0>         0.1500
     19 H2         -1.3092    4.7415   -4.1370 H         1 <0>         0.1500
     20 H3          2.1331    4.6993   -1.5648 H         1 <0>         0.1500
     21 H4         -2.2708    2.8349   -2.8901 H         1 <0>         0.1500
     22 H5          1.1802    2.7927   -0.3117 H         1 <0>         0.1500
     23 H6          0.2768    0.5521    2.3006 H         1 <0>         0.1500
     24 H7         -2.2789    1.6015   -0.8109 H         1 <0>         0.0000
     25 H8          2.1225   -3.0553    1.5929 H         1 <0>         0.4000
     26 H9         -1.0455    0.1465   -2.4089 H         1 <0>         0.4000
@<TRIPOS>BOND
     1    1    2 ar
     2    1    3 ar
     3    2    4 ar
     4    3    5 ar
     5    4    6 ar
     6    5    6 ar
     7    6   12 1
     8    7    8 1
     9    7    9 2
    10    8   10 2
    11    8   11 1
    12    9   12 1
    13    9   17 1
    14   10   13 1
    15   10   16 1
    16   11   14 1
    17   11   15 2
    18   12   16 1
    19   13   14 2
    20    1   18 1
    21    2   19 1
    22    3   20 1
    23    4   21 1
    24    5   22 1
    25    7   23 1
    26   12   24 1
    27   15   25 1
    28   16   26 1
