@<TRIPOS>MOLECULE
*****
   38    40     0     0     0
SMALL
USER_CHARGES

@<TRIPOS>ATOM
      1 C1          5.0963    3.5902   -5.4234 C.ar      1 <0>        -0.1500
      2 C2          4.4059    3.7549   -6.6309 C.ar      1 <0>        -0.1500
      3 C3          2.3470    4.3177   -5.4563 C.ar      1 <0>        -0.1500
      4 C4          4.3999    3.7928   -4.2199 C.ar      1 <0>         0.2272
      5 C5          3.0548    4.1482   -4.2659 C.ar      1 <0>        -0.1516
      6 C6          3.0557    4.1123   -6.6447 C.ar      1 <0>         0.1110
      7 C7          3.7857    3.9859   -2.1840 C.2       1 <0>         0.4975
      8 C8         -1.4457    1.2873   -2.3122 C.3       1 <0>         0.0000
      9 C9          0.0420    0.9651   -2.4076 C.3       1 <0>         0.0000
     10 C10        -1.7053    2.4799   -1.3976 C.3       1 <0>         0.0000
     11 C11         0.8571    2.1861   -2.8379 C.3       1 <0>         0.0000
     12 C12        -0.8970    3.7053   -1.8270 C.3       1 <0>         0.0000
     13 C13         0.6065    3.4027   -1.9336 C.3       1 <0>         0.2800
     14 C14         1.3682    4.6222   -2.4559 C.3       1 <0>         0.2556
     15 N1          4.8363    3.6966   -2.9185 N.2       1 <0>        -0.5653
     16 N2          2.6880    4.2650   -2.9497 N.pl3     1 <0>         0.0476
     17 N3          3.8092    4.0013   -0.7281 N.4       1 <0>        -0.6610
     18 O1          1.1139    3.0964   -0.6314 O.3       1 <0>        -0.6800
     19 Br1         2.1637    4.3220   -8.3018 Br        1 <0>        -0.1110
     20 H1          6.1453    3.3125   -5.4232 H         1 <0>         0.1500
     21 H2          4.9460    3.5982   -7.5621 H         1 <0>         0.1500
     22 H3          1.2983    4.5956   -5.4523 H         1 <0>         0.1500
     23 H4         -1.8367    1.5040   -3.3140 H         1 <0>         0.0000
     24 H5         -1.9898    0.4119   -1.9399 H         1 <0>         0.0000
     25 H6          0.4015    0.6039   -1.4363 H         1 <0>         0.0000
     26 H7          0.1961    0.1507   -3.1246 H         1 <0>         0.0000
     27 H8         -2.7736    2.7246   -1.4069 H         1 <0>         0.0000
     28 H9         -1.4512    2.2123   -0.3648 H         1 <0>         0.0000
     29 H10         1.9196    1.9134   -2.8165 H         1 <0>         0.0000
     30 H11         0.6047    2.4342   -3.8767 H         1 <0>         0.0000
     31 H12        -1.2751    4.0609   -2.7940 H         1 <0>         0.0000
     32 H13        -1.0710    4.5047   -1.0962 H         1 <0>         0.0000
     33 H14         1.4855    5.3609   -1.6602 H         1 <0>         0.0000
     34 H15         0.8112    5.0930   -3.2689 H         1 <0>         0.0000
     35 H16         4.6296    4.5243   -0.4036 H         1 <0>         0.4500
     36 H17         2.9633    4.4458   -0.3556 H         1 <0>         0.4500
     37 H18         3.8599    3.0407   -0.3721 H         1 <0>         0.4500
     38 H19         0.9436    3.8767   -0.0841 H         1 <0>         0.4000
@<TRIPOS>BOND
     1    1    2 ar
     2    1    4 ar
     3    2    6 ar
     4    3    5 ar
     5    3    6 ar
     6    4    5 ar
     7    4   15 1
     8    5   16 1
     9    6   19 1
    10    7   15 2
    11    7   16 1
    12    7   17 1
    13    8    9 1
    14    8   10 1
    15    9   11 1
    16   10   12 1
    17   11   13 1
    18   12   13 1
    19   13   14 1
    20   13   18 1
    21   14   16 1
    22    1   20 1
    23    2   21 1
    24    3   22 1
    25    8   23 1
    26    8   24 1
    27    9   25 1
    28    9   26 1
    29   10   27 1
    30   10   28 1
    31   11   29 1
    32   11   30 1
    33   12   31 1
    34   12   32 1
    35   14   33 1
    36   14   34 1
    37   17   35 1
    38   17   36 1
    39   17   37 1
    40   18   38 1
