@<TRIPOS>MOLECULE
*****
   32    33     0     0     0
SMALL
USER_CHARGES

@<TRIPOS>ATOM
      1 C1         -1.5571    3.1956    6.3770 C.2       1 <0>        -0.1500
      2 C2         -0.6331    3.2593    5.3068 C.2       1 <0>        -0.1500
      3 C3         -2.1776    1.9723    6.2737 C.2       1 <0>        -0.0100
      4 C4         -0.7546    2.0703    4.6259 C.2       1 <0>        -0.0400
      5 C5          1.3848   -0.2560   -0.1620 C.2       1 <0>        -0.1500
      6 C6         -1.3939    0.2657    0.1798 C.2       1 <0>        -0.1356
      7 C7          0.4955   -0.5570   -1.1199 C.2       1 <0>        -0.0170
      8 C8         -0.9168   -0.2912   -0.9436 C.2       1 <0>         0.1400
      9 C9          0.9728    0.3495    1.0931 C.2       1 <0>         0.0144
     10 C10        -0.4898    0.6407    1.3094 C.2       1 <0>         0.4212
     11 C11         1.8756    0.6431    2.0410 C.2       1 <0>         0.1534
     12 C12        -0.0723    1.5074    3.4106 C.3       1 <0>         0.4260
     13 N1         -1.0230    1.1741    2.3617 N.2       1 <0>        -0.6960
     14 N2          0.6955   -0.1762   -3.8030 N.pl3     1 <0>        -0.9780
     15 O1          2.5813   -1.2743   -2.4639 O.2       1 <0>        -0.6500
     16 O2          0.4218   -2.5178   -2.7992 O.2       1 <0>        -0.6500
     17 O3         -1.6940    1.2802    5.2089 O.3       1 <0>        -0.2800
     18 O4          1.4722    1.2161    3.2246 O.3       1 <0>        -0.5267
     19 O5          3.2079    0.3716    1.8335 O.3       1 <0>        -0.5267
     20 S1          1.1309   -1.2729   -2.5562 S.o2      1 <0>         1.4550
     21 Cl1        -2.0358   -0.6956   -2.2035 Cl        1 <0>        -0.1400
     22 H1         -1.7474    3.9472    7.1293 H         1 <0>         0.1500
     23 H2          0.0364    4.0723    5.0645 H         1 <0>         0.1500
     24 H3         -2.9430    1.4717    6.8482 H         1 <0>         0.1500
     25 H4          2.4445   -0.4572   -0.2965 H         1 <0>         0.1500
     26 H5         -2.4528    0.4662    0.3146 H         1 <0>         0.1500
     27 H6          0.6614    2.2245    3.0242 H         1 <0>         0.0000
     28 H7          0.4921    0.6074    3.6800 H         1 <0>         0.0000
     29 H8          1.1630    0.7392   -3.7992 H         1 <0>         0.4200
     30 H9         -0.3053   -0.1065   -4.0281 H         1 <0>         0.4200
     31 H10         2.2729    1.3433    3.7613 H         1 <0>         0.4500
     32 H11         3.6800    0.6586    2.6333 H         1 <0>         0.4500
@<TRIPOS>BOND
     1    1    2 1
     2    1    3 2
     3    2    4 2
     4    3   17 1
     5    4   12 1
     6    4   17 1
     7    5    7 2
     8    5    9 1
     9    6    8 2
    10    6   10 1
    11    7    8 1
    12    7   20 1
    13    8   21 1
    14    9   10 1
    15    9   11 2
    16   10   13 2
    17   11   18 1
    18   11   19 1
    19   12   13 1
    20   14   20 1
    21   15   20 2
    22   16   20 2
    23    1   22 1
    24    2   23 1
    25    3   24 1
    26    5   25 1
    27    6   26 1
    28   12   27 1
    29   12   28 1
    30   14   29 1
    31   14   30 1
    32   18   31 1
    33   19   32 1
