@<TRIPOS>MOLECULE
*****
   35    37     0     0     0
SMALL
USER_CHARGES

@<TRIPOS>ATOM
      1 C1          3.7107    3.8757   -5.2667 C.ar      1 <0>        -0.1500
      2 C2          2.7401    4.8343   -5.5669 C.ar      1 <0>        -0.1500
      3 C3          1.1302    3.7754   -4.0630 C.ar      1 <0>        -0.1500
      4 C4          3.3669    2.8888   -4.3701 C.ar      1 <0>         0.1000
      5 C5          2.0925    2.8317   -3.7706 C.ar      1 <0>         0.1000
      6 C6          1.4645    4.7848   -4.9718 C.ar      1 <0>         0.1110
      7 C7          3.3314    1.0739   -2.9836 C.2       1 <0>         0.5500
      8 C8         -0.1409    1.3618    0.1455 C.3       1 <0>         0.0000
      9 C9          1.4131    3.2255   -0.5074 C.3       1 <0>         0.0000
     10 C10        -0.0276    1.8682    1.5812 C.3       1 <0>         0.2800
     11 C11         1.4387    3.6226    0.9661 C.3       1 <0>         0.2800
     12 C12         1.1027    1.7311   -0.6743 C.3       1 <0>         0.2800
     13 C13         0.9132    1.3670   -2.1464 C.3       1 <0>         0.3691
     14 N1          3.7305    0.0141   -2.3554 N.2       1 <0>        -0.8500
     15 N2          4.1129    1.8130   -3.8835 N.pl3     1 <0>        -0.5500
     16 N3          2.0768    1.7173   -2.9230 N.pl3     1 <0>        -0.5191
     17 O1          0.2108    3.2747    1.6042 O.3       1 <0>        -0.5600
     18 O2          2.2036    0.9680   -0.1721 O.3       1 <0>        -0.6800
     19 Br1         0.1821    6.1061   -5.4110 Br        1 <0>        -0.1110
     20 H1          4.6918    3.9139   -5.7255 H         1 <0>         0.1500
     21 H2          2.9870    5.6242   -6.2730 H         1 <0>         0.1500
     22 H3          0.1482    3.7343   -3.6034 H         1 <0>         0.1500
     23 H4         -0.2867    0.2753    0.1616 H         1 <0>         0.0000
     24 H5         -1.0263    1.8163   -0.3168 H         1 <0>         0.0000
     25 H6          0.6382    3.8133   -1.0156 H         1 <0>         0.0000
     26 H7          2.3793    3.4764   -0.9603 H         1 <0>         0.0000
     27 H8         -0.9652    1.6807    2.1141 H         1 <0>         0.0000
     28 H9          0.7699    1.3531    2.1297 H         1 <0>         0.0000
     29 H10         2.2738    3.1511    1.4973 H         1 <0>         0.0000
     30 H11         1.5641    4.7065    1.0547 H         1 <0>         0.0000
     31 H12         0.7393    0.2840   -2.2289 H         1 <0>         0.0000
     32 H13         0.0415    1.9095   -2.5411 H         1 <0>         0.0000
     33 H14         2.9787   -0.3126   -1.7429 H         1 <0>         0.4000
     34 H15         5.0658    1.6176   -4.1499 H         1 <0>         0.4000
     35 H16         2.3014    1.2144    0.7591 H         1 <0>         0.4000
@<TRIPOS>BOND
     1    1    2 ar
     2    1    4 ar
     3    2    6 ar
     4    3    5 ar
     5    3    6 ar
     6    4    5 ar
     7    4   15 1
     8    5   16 1
     9    6   19 1
    10    7   14 2
    11    7   15 1
    12    7   16 1
    13    8   10 1
    14    8   12 1
    15    9   11 1
    16    9   12 1
    17   10   17 1
    18   11   17 1
    19   12   13 1
    20   12   18 1
    21   13   16 1
    22    1   20 1
    23    2   21 1
    24    3   22 1
    25    8   23 1
    26    8   24 1
    27    9   25 1
    28    9   26 1
    29   10   27 1
    30   10   28 1
    31   11   29 1
    32   11   30 1
    33   13   31 1
    34   13   32 1
    35   14   33 1
    36   15   34 1
    37   18   35 1
