@<TRIPOS>MOLECULE
*****
   44    46     0     0     0
SMALL
USER_CHARGES

@<TRIPOS>ATOM
      1 C1         -0.2019    3.2885   -7.1407 C.ar      1 <0>        -0.1500
      2 C2         -0.9249    4.1635   -6.3348 C.ar      1 <0>        -0.1500
      3 C3          1.4635    0.1037   -6.8563 C.ar      1 <0>         0.1600
      4 C4          0.3029    2.0949   -6.6366 C.ar      1 <0>         0.3100
      5 C5          0.0540    1.8081   -5.2826 C.ar      1 <0>         0.3610
      6 C6          0.5426    0.6210   -4.7359 C.ar      1 <0>         0.0825
      7 C7          1.2630   -0.2530   -5.5357 C.ar      1 <0>         0.1900
      8 C8         -1.1355    3.8236   -5.0113 C.ar      1 <0>         0.4435
      9 C9          0.8559   -1.4132   -1.1334 C.3       1 <0>         0.0000
     10 C10         1.9483    0.5976   -0.0519 C.3       1 <0>         0.0000
     11 C11         0.5173   -1.9719    0.2486 C.3       1 <0>         0.0000
     12 C12         1.6091    0.0383    1.3297 C.3       1 <0>         0.0000
     13 C13         0.9518    0.1193   -1.1178 C.3       1 <0>         0.0000
     14 C14         1.5185   -1.4848    1.2925 C.3       1 <0>         0.5030
     15 C15        -0.9384    2.4271   -3.1098 C.3       1 <0>         0.4880
     16 C16         1.3428    0.6484   -2.4965 C.3       1 <0>         0.2800
     17 N1          1.0025    1.2478   -7.4156 N.ar      1 <0>        -0.6200
     18 N2         -0.6480    2.6742   -4.5297 N.ar      1 <0>        -0.2100
     19 N3          1.0950   -1.9746    2.6310 N.4       1 <0>        -0.8530
     20 O1         -1.8521    4.7013   -4.2309 O.3       1 <0>        -0.5325
     21 O2          0.3600    0.2397   -3.4292 O.3       1 <0>        -0.3625
     22 F1          1.7507   -1.4029   -5.0551 F         1 <0>        -0.1900
     23 H1         -0.0334    3.5513   -8.1830 H         1 <0>         0.1500
     24 H2         -1.3110    5.0906   -6.7461 H         1 <0>         0.1500
     25 H3          2.0201   -0.5428   -7.5268 H         1 <0>         0.1500
     26 H4          1.8065   -1.8435   -1.4740 H         1 <0>         0.0000
     27 H5          0.0897   -1.7323   -1.8500 H         1 <0>         0.0000
     28 H6          1.9504    1.6933   -0.0068 H         1 <0>         0.0000
     29 H7          2.9651    0.2881   -0.3260 H         1 <0>         0.0000
     30 H8         -0.4991   -1.6585    0.5203 H         1 <0>         0.0000
     31 H9          0.5161   -3.0675    0.2055 H         1 <0>         0.0000
     32 H10         2.3763    0.3553    2.0460 H         1 <0>         0.0000
     33 H11         0.6561    0.4685    1.6639 H         1 <0>         0.0000
     34 H12        -0.0384    0.5246   -0.8700 H         1 <0>         0.0000
     35 H13         2.5066   -1.9215    1.1072 H         1 <0>         0.0000
     36 H14        -0.1314    2.8494   -2.5048 H         1 <0>         0.0000
     37 H15        -1.8870    2.8923   -2.8275 H         1 <0>         0.0000
     38 H16        -1.0095    1.3505   -2.9302 H         1 <0>         0.0000
     39 H17         2.3101    0.2411   -2.7885 H         1 <0>         0.0000
     40 H18         1.3912    1.7364   -2.4755 H         1 <0>         0.0000
     41 H19         1.8895   -1.9997    3.2771 H         1 <0>         0.4500
     42 H20         0.7074   -2.9208    2.5653 H         1 <0>         0.4500
     43 H21         0.3773   -1.3631    3.0316 H         1 <0>         0.4500
     44 H22        -2.1123    5.4648   -4.7616 H         1 <0>         0.4500
@<TRIPOS>BOND
     1    1    2 ar
     2    1    4 ar
     3    2    8 ar
     4    3    7 ar
     5    3   17 ar
     6    4    5 ar
     7    4   17 ar
     8    5    6 ar
     9    5   18 ar
    10    6    7 ar
    11    6   21 1
    12    7   22 1
    13    8   18 ar
    14    8   20 1
    15    9   11 1
    16    9   13 1
    17   10   12 1
    18   10   13 1
    19   11   14 1
    20   12   14 1
    21   13   16 1
    22   14   19 1
    23   15   18 1
    24   16   21 1
    25    1   23 1
    26    2   24 1
    27    3   25 1
    28    9   26 1
    29    9   27 1
    30   10   28 1
    31   10   29 1
    32   11   30 1
    33   11   31 1
    34   12   32 1
    35   12   33 1
    36   13   34 1
    37   14   35 1
    38   15   36 1
    39   15   37 1
    40   15   38 1
    41   16   39 1
    42   16   40 1
    43   19   41 1
    44   19   42 1
    45   19   43 1
    46   20   44 1
