@<TRIPOS>MOLECULE
*****
   40    41     0     0     0
SMALL
USER_CHARGES

@<TRIPOS>ATOM
      1 C1          0.0102    0.9051    3.5436 C.ar      1 <0>        -0.1500
      2 C2         -2.0896    1.9615    4.1018 C.ar      1 <0>        -0.1500
      3 C3         -1.1950    1.4829    3.1446 C.ar      1 <0>        -0.1435
      4 C4          0.3207    0.8056    4.8999 C.ar      1 <0>        -0.1435
      5 C5         -1.7792    1.8621    5.4581 C.ar      1 <0>        -0.1435
      6 C6         -0.5740    1.2842    5.8571 C.ar      1 <0>        -0.1710
      7 C7         -3.9536    0.8898    1.3088 C.2       1 <0>         0.3756
      8 C8         -2.5183    0.5658    1.2380 C.2       1 <0>        -0.1238
      9 C9         -2.2992   -0.6810    0.7567 C.2       1 <0>        -0.4000
     10 C10        -4.5264   -1.1603    0.4811 C.2       1 <0>         0.4410
     11 C11         1.6307    0.1751    5.2656 C.3       1 <0>         0.1435
     12 C12        -4.0242    2.9779    5.7039 C.3       1 <0>         0.0000
     13 C13        -2.1633    3.5304    7.3063 C.3       1 <0>         0.0000
     14 C14        -3.3409    1.3455    7.4505 C.3       1 <0>         0.0000
     15 C15        -1.5304    1.5903    1.6798 C.3       1 <0>         0.2817
     16 C16        -2.7809    2.3943    6.4382 C.3       1 <0>         0.1435
     17 N1         -3.2590   -1.5692    0.3699 N.2       1 <0>        -0.5800
     18 N2         -4.8961    0.0808    0.9541 N.2       1 <0>        -0.6610
     19 N3         -1.0725   -1.2371    0.5868 N.2       1 <0>        -0.9500
     20 N4         -5.4682   -1.9726    0.1259 N.2       1 <0>        -0.8500
     21 O1         -0.2880    1.1928    7.1061 O.3       1 <0>        -0.8290
     22 H1          0.7063    0.5329    2.7954 H         1 <0>         0.1500
     23 H2         -3.0287    2.4117    3.7882 H         1 <0>         0.1500
     24 H3         -4.2120    1.8903    1.6914 H         1 <0>         0.0600
     25 H4          2.4115    0.9397    5.3206 H         1 <0>         0.0000
     26 H5          1.5633   -0.3326    6.2334 H         1 <0>         0.0000
     27 H6          1.9226   -0.5768    4.5250 H         1 <0>         0.0000
     28 H7         -4.7735    3.3744    6.3991 H         1 <0>         0.0000
     29 H8         -3.7478    3.7965    5.0304 H         1 <0>         0.0000
     30 H9         -4.5084    2.2027    5.0981 H         1 <0>         0.0000
     31 H10        -2.8873    3.9268    8.0265 H         1 <0>         0.0000
     32 H11        -1.2926    3.1927    7.8806 H         1 <0>         0.0000
     33 H12        -1.8410    4.3639    6.6711 H         1 <0>         0.0000
     34 H13        -4.0686    1.7822    8.1452 H         1 <0>         0.0000
     35 H14        -3.8478    0.5266    6.9267 H         1 <0>         0.0000
     36 H15        -2.5347    0.9163    8.0568 H         1 <0>         0.0000
     37 H16        -1.9244    2.5924    1.4693 H         1 <0>         0.0000
     38 H17        -0.6178    1.4963    1.0787 H         1 <0>         0.0000
     39 H18        -0.4090   -0.6351    1.0593 H         1 <0>         0.1500
     40 H19        -6.3740   -1.5176    0.2693 H         1 <0>         0.4000
@<TRIPOS>BOND
     1    1    3 ar
     2    1    4 ar
     3    2    3 ar
     4    2    5 ar
     5    3   15 1
     6    4    6 ar
     7    4   11 1
     8    5    6 ar
     9    5   16 1
    10    6   21 1
    11    7    8 1
    12    7   18 2
    13    8    9 2
    14    8   15 1
    15    9   17 1
    16    9   19 1
    17   10   17 1
    18   10   18 1
    19   10   20 2
    20   12   16 1
    21   13   16 1
    22   14   16 1
    23    1   22 1
    24    2   23 1
    25    7   24 1
    26   11   25 1
    27   11   26 1
    28   11   27 1
    29   12   28 1
    30   12   29 1
    31   12   30 1
    32   13   31 1
    33   13   32 1
    34   13   33 1
    35   14   34 1
    36   14   35 1
    37   14   36 1
    38   15   37 1
    39   15   38 1
    40   19   39 1
    41   20   40 1
