@<TRIPOS>MOLECULE
*****
   41    42     0     0     0
SMALL
USER_CHARGES

@<TRIPOS>ATOM
      1 C1          0.2375    1.8569   -3.5265 C.ar      1 <0>        -0.1500
      2 C2          1.8186    3.5604   -2.8671 C.ar      1 <0>        -0.1500
      3 C3          1.2658    2.2920   -2.6906 C.ar      1 <0>        -0.1435
      4 C4         -0.2381    2.6902   -4.5390 C.ar      1 <0>        -0.1435
      5 C5          1.3431    4.3937   -3.8796 C.ar      1 <0>        -0.1435
      6 C6          0.3147    3.9586   -4.7155 C.ar      1 <0>        -0.1710
      7 C7          4.2812    1.2756   -1.6691 C.2       1 <0>        -0.0500
      8 C8          3.0830    0.7549   -1.9406 C.2       1 <0>        -0.1238
      9 C9          3.1131   -0.5657   -2.6405 C.2       1 <0>         0.2156
     10 C10         5.4367   -0.5884   -2.6619 C.2       1 <0>         0.2800
     11 C11        -1.3446    2.1661   -5.4042 C.3       1 <0>         0.1435
     12 C12         3.0925    5.9505   -2.9514 C.3       1 <0>         0.0000
     13 C13         0.9248    6.8776   -3.8330 C.3       1 <0>         0.0000
     14 C14         2.6560    6.0204   -5.3981 C.3       1 <0>         0.0000
     15 C15         1.7794    1.3922   -1.5973 C.3       1 <0>         0.2817
     16 C16         1.9774    5.7448   -4.0190 C.3       1 <0>         0.1435
     17 N1          4.2663   -1.1645   -2.9633 N.2       1 <0>        -0.5600
     18 N2          2.0136   -1.1738   -2.9573 N.2       1 <0>        -0.8500
     19 N3          6.5203   -1.2176   -2.9986 N.2       1 <0>        -0.8500
     20 N4          5.4238    0.6263   -2.0178 N.pl3     1 <0>        -0.5500
     21 O1         -0.1233    4.7261   -5.6479 O.3       1 <0>        -0.8290
     22 H1         -0.1922    0.8675   -3.3867 H         1 <0>         0.1500
     23 H2          2.6203    3.8974   -2.2140 H         1 <0>         0.1500
     24 H3          4.4295    2.2231   -1.1674 H         1 <0>         0.1500
     25 H4         -2.3145    2.4283   -4.9708 H         1 <0>         0.0000
     26 H5         -1.2829    2.5850   -6.4139 H         1 <0>         0.0000
     27 H6         -1.2825    1.0771   -5.5009 H         1 <0>         0.0000
     28 H7          3.5733    6.9324   -3.0315 H         1 <0>         0.0000
     29 H8          2.6961    5.8706   -1.9332 H         1 <0>         0.0000
     30 H9          3.8720    5.1873   -3.0617 H         1 <0>         0.0000
     31 H10         1.3779    7.8699   -3.9330 H         1 <0>         0.0000
     32 H11         0.1136    6.8206   -4.5683 H         1 <0>         0.0000
     33 H12         0.4748    6.8204   -2.8348 H         1 <0>         0.0000
     34 H13         3.1048    7.0197   -5.4509 H         1 <0>         0.0000
     35 H14         3.4570    5.2976   -5.5926 H         1 <0>         0.0000
     36 H15         1.9276    5.9512   -6.2144 H         1 <0>         0.0000
     37 H16         1.8888    1.9697   -0.6712 H         1 <0>         0.0000
     38 H17         1.0422    0.6110   -1.3770 H         1 <0>         0.0000
     39 H18         2.2439   -2.0541   -3.4250 H         1 <0>         0.4000
     40 H19         7.3285   -0.6630   -2.7075 H         1 <0>         0.4000
     41 H20         6.2976    1.0833   -1.7788 H         1 <0>         0.4000
@<TRIPOS>BOND
     1    1    3 ar
     2    1    4 ar
     3    2    3 ar
     4    2    5 ar
     5    3   15 1
     6    4    6 ar
     7    4   11 1
     8    5    6 ar
     9    5   16 1
    10    6   21 1
    11    7    8 2
    12    7   20 1
    13    8    9 1
    14    8   15 1
    15    9   17 1
    16    9   18 2
    17   10   17 1
    18   10   19 2
    19   10   20 1
    20   12   16 1
    21   13   16 1
    22   14   16 1
    23    1   22 1
    24    2   23 1
    25    7   24 1
    26   11   25 1
    27   11   26 1
    28   11   27 1
    29   12   28 1
    30   12   29 1
    31   12   30 1
    32   13   31 1
    33   13   32 1
    34   13   33 1
    35   14   34 1
    36   14   35 1
    37   14   36 1
    38   15   37 1
    39   15   38 1
    40   18   39 1
    41   19   40 1
    42   20   41 1
