@<TRIPOS>MOLECULE
*****
   47    50     0     0     0
SMALL
USER_CHARGES

@<TRIPOS>ATOM
      1 C1         -2.6393    1.3875    4.9707 C.ar      1 <0>        -0.1500
      2 C2         -1.4837    1.2549    5.7441 C.ar      1 <0>        -0.1500
      3 C3         -2.9070    0.5052    3.9165 C.ar      1 <0>        -0.1500
      4 C4         -0.5554    0.2389    5.4938 C.ar      1 <0>        -0.1500
      5 C5         -3.2942    2.7132    0.3816 C.ar      1 <0>         0.1600
      6 C6         -1.4675    4.1052    0.8081 C.ar      1 <0>         0.1600
      7 C7         -1.9924    3.0574    0.0795 C.ar      1 <0>        -0.1435
      8 C8         -1.9850   -0.5214    3.6508 C.ar      1 <0>         0.2272
      9 C9         -0.8426   -0.6280    4.4390 C.ar      1 <0>        -0.1516
     10 C10        -0.9097   -2.1982    2.8818 C.2       1 <0>         0.0065
     11 C11        -3.4112    4.3424    1.9625 C.ar      1 <0>         0.7025
     12 C12        -1.3776   -0.1374   -0.6499 C.2       1 <0>         0.1910
     13 C13        -0.6951    1.0086   -0.5091 C.2       1 <0>        -0.1238
     14 C14         0.6374    0.9683    0.1481 C.2       1 <0>         0.9366
     15 C15         0.2830   -1.4285    0.3780 C.cat     1 <0>         0.8398
     16 C16         1.0851   -2.2339    4.4044 C.3       1 <0>         0.2556
     17 C17        -5.4678    4.5500    3.1387 C.3       1 <0>         0.2800
     18 C18        -1.1967    2.3365   -0.9752 C.3       1 <0>         0.2817
     19 C19        -0.4664   -3.3904    2.0794 C.3       1 <0>         0.4100
     20 N1         -4.0357    3.3366    1.3207 N.ar      1 <0>        -0.6200
     21 N2         -2.1512    4.7727    1.7605 N.ar      1 <0>        -0.6200
     22 N3         -2.0095   -1.5052    2.6891 N.2       1 <0>        -0.5653
     23 N4         -0.1734   -1.7089    3.9247 N.pl3     1 <0>         0.0476
     24 N5         -0.9033   -1.3529   -0.2143 N.pl3     1 <0>        -0.6454
     25 N6          1.0361   -0.3471    0.5640 N.am      1 <0>        -0.6854
     26 O1          1.3626    1.9299    0.3407 O.2       1 <0>        -0.5700
     27 O2         -4.1382    5.0019    2.9261 O.3       1 <0>        -0.3625
     28 S1          0.8537   -2.9773    0.9176 S.3       1 <0>        -0.3610
     29 H1         -3.3427    2.1864    5.1905 H         1 <0>         0.1500
     30 H2         -1.3013    1.9546    6.5562 H         1 <0>         0.1500
     31 H3         -3.8080    0.6165    3.3222 H         1 <0>         0.1500
     32 H4          0.3409    0.1361    6.0951 H         1 <0>         0.1500
     33 H5         -3.7978    1.9020   -0.1345 H         1 <0>         0.1500
     34 H6         -0.4519    4.4527    0.6456 H         1 <0>         0.1500
     35 H7         -2.3536   -0.1627   -1.1217 H         1 <0>         0.1500
     36 H8          0.8680   -2.9835    5.1698 H         1 <0>         0.0000
     37 H9          1.6325   -2.6848    3.5720 H         1 <0>         0.0000
     38 H10         1.6803   -1.4182    4.8244 H         1 <0>         0.0000
     39 H11        -5.9362    5.1497    3.9229 H         1 <0>         0.0000
     40 H12        -5.4533    3.4967    3.4302 H         1 <0>         0.0000
     41 H13        -6.0337    4.6615    2.2108 H         1 <0>         0.0000
     42 H14        -1.8151    2.1959   -1.8689 H         1 <0>         0.0000
     43 H15        -0.3459    2.9500   -1.2912 H         1 <0>         0.0000
     44 H16        -0.1155   -4.1866    2.7453 H         1 <0>         0.0000
     45 H17        -1.3126   -3.8026    1.5186 H         1 <0>         0.0000
     46 H18        -1.4553   -2.1939   -0.3424 H         1 <0>         0.4500
     47 H19         1.9305   -0.4856    1.0244 H         1 <0>         0.4500
@<TRIPOS>BOND
     1    1    2 ar
     2    1    3 ar
     3    2    4 ar
     4    3    8 ar
     5    4    9 ar
     6    5    7 ar
     7    5   20 ar
     8    6    7 ar
     9    6   21 ar
    10    7   18 1
    11    8    9 ar
    12    8   22 1
    13    9   23 1
    14   10   19 1
    15   10   22 2
    16   10   23 1
    17   11   20 ar
    18   11   21 ar
    19   11   27 1
    20   12   13 2
    21   12   24 1
    22   13   14 1
    23   13   18 1
    24   14   25 am
    25   14   26 2
    26   15   24 1
    27   15   25 2
    28   15   28 1
    29   16   23 1
    30   17   27 1
    31   19   28 1
    32    1   29 1
    33    2   30 1
    34    3   31 1
    35    4   32 1
    36    5   33 1
    37    6   34 1
    38   12   35 1
    39   16   36 1
    40   16   37 1
    41   16   38 1
    42   17   39 1
    43   17   40 1
    44   17   41 1
    45   18   42 1
    46   18   43 1
    47   19   44 1
    48   19   45 1
    49   24   46 1
    50   25   47 1
