@<TRIPOS>MOLECULE
*****
   34    36     0     0     0
SMALL
USER_CHARGES

@<TRIPOS>ATOM
      1 C1          0.3848    5.1896   -5.0992 C.ar      1 <0>        -0.1500
      2 C2         -1.0107    5.1389   -5.1791 C.ar      1 <0>        -0.1500
      3 C3         -1.0749    3.2026   -3.7070 C.ar      1 <0>        -0.1500
      4 C4          1.0409    4.2446   -4.3227 C.ar      1 <0>        -0.2520
      5 C5          0.3026    3.2689   -3.6403 C.ar      1 <0>         0.1000
      6 C6         -1.7339    4.1531   -4.4883 C.ar      1 <0>         0.1110
      7 C7          2.4857    3.0300   -3.2789 C.2       1 <0>         0.2800
      8 C8          0.7570    0.5424    0.2326 C.3       1 <0>         0.0000
      9 C9          0.2487    2.9475   -0.2888 C.3       1 <0>         0.0000
     10 C10         0.7852    0.9435    1.7053 C.3       1 <0>         0.2800
     11 C11         0.3088    3.2101    1.2135 C.3       1 <0>         0.2800
     12 C12         1.1027    1.7311   -0.6743 C.3       1 <0>         0.2800
     13 C13         0.9132    1.3670   -2.1464 C.3       1 <0>         0.3691
     14 N1          2.3720    4.1017   -4.1029 N.2       1 <0>        -0.5280
     15 N2          3.6526    2.6368   -2.8890 N.2       1 <0>        -0.8500
     16 N3          1.2345    2.4874   -2.9641 N.pl3     1 <0>        -0.5191
     17 O1         -0.0836    2.0496    1.9450 O.3       1 <0>        -0.5600
     18 O2          2.4831    2.0497   -0.4756 O.3       1 <0>        -0.6800
     19 Br1        -3.6207    4.1141   -4.6181 Br        1 <0>        -0.1110
     20 H1          0.9328    5.9557   -5.6390 H         1 <0>         0.1500
     21 H2         -1.5270    5.8777   -5.7878 H         1 <0>         0.1500
     22 H3         -1.6222    2.4362   -3.1681 H         1 <0>         0.1500
     23 H4          1.4605   -0.2836    0.0750 H         1 <0>         0.0000
     24 H5         -0.2501    0.1820   -0.0125 H         1 <0>         0.0000
     25 H6         -0.7950    2.7586   -0.5703 H         1 <0>         0.0000
     26 H7          0.5853    3.8450   -0.8206 H         1 <0>         0.0000
     27 H8          0.4388    0.1083    2.3223 H         1 <0>         0.0000
     28 H9          1.7994    1.1968    2.0359 H         1 <0>         0.0000
     29 H10         1.3115    3.5206    1.5297 H         1 <0>         0.0000
     30 H11        -0.3823    4.0178    1.4755 H         1 <0>         0.0000
     31 H12         1.5783    0.5323   -2.3594 H         1 <0>         0.0000
     32 H13        -0.1294    1.0830   -2.2758 H         1 <0>         0.0000
     33 H14         3.5459    1.8219   -2.2776 H         1 <0>         0.4000
     34 H15         2.9818    1.2561   -0.7184 H         1 <0>         0.4000
@<TRIPOS>BOND
     1    1    2 ar
     2    1    4 ar
     3    2    6 ar
     4    3    5 ar
     5    3    6 ar
     6    4    5 ar
     7    4   14 1
     8    5   16 1
     9    6   19 1
    10    7   14 1
    11    7   15 2
    12    7   16 1
    13    8   10 1
    14    8   12 1
    15    9   11 1
    16    9   12 1
    17   10   17 1
    18   11   17 1
    19   12   13 1
    20   12   18 1
    21   13   16 1
    22    1   20 1
    23    2   21 1
    24    3   22 1
    25    8   23 1
    26    8   24 1
    27    9   25 1
    28    9   26 1
    29   10   27 1
    30   10   28 1
    31   11   29 1
    32   11   30 1
    33   13   31 1
    34   13   32 1
    35   15   33 1
    36   18   34 1
