@<TRIPOS>MOLECULE
*****
   31    32     0     0     0
SMALL
USER_CHARGES

@<TRIPOS>ATOM
      1 C1          5.1085    1.6235   -4.8921 C.2       1 <0>        -0.1500
      2 C2          4.2227    0.5906   -4.5026 C.2       1 <0>        -0.1500
      3 C3          5.1589    2.5023   -3.8351 C.2       1 <0>        -0.0100
      4 C4          3.7950    0.9118   -3.2353 C.2       1 <0>        -0.0400
      5 C5         -1.0474    0.7980    0.3712 C.2       1 <0>        -0.1500
      6 C6         -0.2329    1.3598   -0.5291 C.2       1 <0>        -0.2356
      7 C7         -0.8371   -0.5293    0.9005 C.2       1 <0>        -0.0170
      8 C8          0.2048   -1.2802    0.5090 C.2       1 <0>         0.0018
      9 C9          0.9463    0.6036   -1.0204 C.2       1 <0>         0.3746
     10 C10        -0.5652    2.7580   -1.0037 C.2       1 <0>         1.0500
     11 C11         1.2136   -0.8022   -0.4934 C.3       1 <0>         0.1992
     12 C12         2.8593    0.2449   -2.2663 C.3       1 <0>         0.4260
     13 N1          1.7570    1.1158   -1.8919 N.2       1 <0>        -0.6960
     14 N2         -1.0051   -1.4511    3.4512 N.pl3     1 <0>        -0.9780
     15 O1         -1.6907    2.8807   -1.5640 O.co2     1 <0>        -0.9000
     16 O2          0.3249    3.6260   -0.7796 O.co2     1 <0>        -0.9000
     17 O3         -2.8944   -0.0821    2.3970 O.2       1 <0>        -0.6500
     18 O4         -2.4611   -2.4197    1.5784 O.2       1 <0>        -0.6500
     19 O5          4.3612    2.0757   -2.8212 O.3       1 <0>        -0.2800
     20 S1         -1.9605   -1.1430    2.0589 S.o2      1 <0>         1.4550
     21 Cl1         0.5220   -2.8802    1.0993 Cl        1 <0>        -0.1400
     22 H1          5.6431    1.7161   -5.8263 H         1 <0>         0.1500
     23 H2          3.9336   -0.2782   -5.0767 H         1 <0>         0.1500
     24 H3          5.6860    3.4282   -3.6575 H         1 <0>         0.1500
     25 H4         -1.9134    1.3429    0.7375 H         1 <0>         0.1500
     26 H5          2.2139   -0.7997   -0.0430 H         1 <0>         0.0000
     27 H6          1.2306   -1.4791   -1.3566 H         1 <0>         0.0000
     28 H7          2.4625   -0.6799   -2.7013 H         1 <0>         0.0000
     29 H8          3.4033   -0.0511   -1.3623 H         1 <0>         0.0000
     30 H9         -0.6229   -0.6325    3.9414 H         1 <0>         0.4200
     31 H10        -0.3283   -2.2224    3.3857 H         1 <0>         0.4200
@<TRIPOS>BOND
     1    1    2 1
     2    1    3 2
     3    2    4 2
     4    3   19 1
     5    4   12 1
     6    4   19 1
     7    5    6 2
     8    5    7 1
     9    6    9 1
    10    6   10 1
    11    7    8 2
    12    7   20 1
    13    8   11 1
    14    8   21 1
    15    9   11 1
    16    9   13 2
    17   10   15 1
    18   10   16 2
    19   12   13 1
    20   14   20 1
    21   17   20 2
    22   18   20 2
    23    1   22 1
    24    2   23 1
    25    3   24 1
    26    5   25 1
    27   11   26 1
    28   11   27 1
    29   12   28 1
    30   12   29 1
    31   14   30 1
    32   14   31 1
