@<TRIPOS>MOLECULE
*****
   36    37     0     0     0
SMALL
USER_CHARGES

@<TRIPOS>ATOM
      1 C1          0.6794   -6.0899    6.0243 C.ar      1 <0>        -0.1500
      2 C2          1.7853   -6.3089    5.1763 C.ar      1 <0>        -0.1500
      3 C3         -0.5141   -5.5463    5.5335 C.ar      1 <0>        -0.1500
      4 C4          1.7231   -5.9897    3.8188 C.ar      1 <0>        -0.1500
      5 C5         -0.5692   -5.2333    4.1945 C.ar      1 <0>         0.1000
      6 C6          0.5365   -5.4568    3.3657 C.ar      1 <0>         0.3640
      7 C7         -1.1626   -4.5663    2.1369 C.2       1 <0>         0.4560
      8 C8         -1.7997   -4.0968    1.0613 C.2       1 <0>         0.0210
      9 C9         -2.0194   -4.1423   -1.2027 C.2       1 <0>         0.7500
     10 C10        -2.8466   -6.6122   -1.6357 C.3       1 <0>         0.0000
     11 C11        -5.1478   -5.8982   -0.9258 C.3       1 <0>         0.0000
     12 C12        -4.2622   -5.2095   -3.1730 C.3       1 <0>         0.0000
     13 C13        -3.9017   -5.5101   -1.7188 C.3       1 <0>         0.2800
     14 N1         -1.2371   -4.0316   -0.1784 N.2       1 <0>        -0.6210
     15 N2         -1.5939   -4.6927    3.4360 N.pl3     1 <0>        -0.6000
     16 N3          0.2046   -5.0360    1.9962 N.4       1 <0>        -0.6200
     17 O1         -1.6349   -4.1010   -2.5026 O.3       1 <0>        -0.6000
     18 O2         -3.3659   -4.3199   -1.1260 O.3       1 <0>        -0.4300
     19 H1          0.7573   -6.3483    7.0773 H         1 <0>         0.1500
     20 H2          2.6976   -6.7323    5.5887 H         1 <0>         0.1500
     21 H3         -1.3591   -5.3810    6.1922 H         1 <0>         0.1500
     22 H4          2.5683   -6.1553    3.1622 H         1 <0>         0.1500
     23 H5         -2.8209   -3.7407    1.1483 H         1 <0>         0.1500
     24 H6         -1.9506   -6.3374   -2.2036 H         1 <0>         0.0000
     25 H7         -2.5538   -6.8130   -0.6000 H         1 <0>         0.0000
     26 H8         -3.2187   -7.5439   -2.0770 H         1 <0>         0.0000
     27 H9         -5.9075   -5.1103   -0.9827 H         1 <0>         0.0000
     28 H10        -4.9110   -6.0225    0.1371 H         1 <0>         0.0000
     29 H11        -5.5872   -6.8307   -1.2945 H         1 <0>         0.0000
     30 H12        -5.0190   -4.4190   -3.2329 H         1 <0>         0.0000
     31 H13        -3.3862   -4.8936   -3.7486 H         1 <0>         0.0000
     32 H14        -4.6973   -6.0915   -3.6568 H         1 <0>         0.0000
     33 H15        -2.5090   -4.4280    3.7581 H         1 <0>         0.4000
     34 H16         0.8503   -4.2935    1.6984 H         1 <0>         0.4500
     35 H17         0.2841   -5.8400    1.3604 H         1 <0>         0.4500
     36 H18        -0.6738   -3.9748   -2.5857 H         1 <0>         0.4500
@<TRIPOS>BOND
     1    1    2 ar
     2    1    3 ar
     3    2    4 ar
     4    3    5 ar
     5    4    6 ar
     6    5    6 ar
     7    5   15 1
     8    6   16 1
     9    7    8 2
    10    7   15 1
    11    7   16 1
    12    8   14 1
    13    9   14 2
    14    9   17 1
    15    9   18 1
    16   10   13 1
    17   11   13 1
    18   12   13 1
    19   13   18 1
    20    1   19 1
    21    2   20 1
    22    3   21 1
    23    4   22 1
    24    8   23 1
    25   10   24 1
    26   10   25 1
    27   10   26 1
    28   11   27 1
    29   11   28 1
    30   11   29 1
    31   12   30 1
    32   12   31 1
    33   12   32 1
    34   15   33 1
    35   16   34 1
    36   16   35 1
    37   17   36 1
