@<TRIPOS>MOLECULE
*****
   26    27     0     0     0
SMALL
USER_CHARGES

@<TRIPOS>ATOM
      1 C1         -0.1589    2.8437    0.6768 C.1       1 <0>         0.1530
      2 C2          2.8563   -3.0880   -3.2652 C.2       1 <0>         0.1000
      3 C3          2.7705   -2.4459   -4.4776 C.2       1 <0>        -0.1400
      4 C4          0.8524   -2.0512   -2.9935 C.cat     1 <0>         0.5000
      5 C5         -1.4015    1.0131   -0.1667 C.2       1 <0>        -0.1500
      6 C6         -1.4682   -0.1015   -0.9056 C.2       1 <0>        -0.1356
      7 C7          0.9931    0.1977   -1.5073 C.2       1 <0>        -0.1356
      8 C8         -0.1650    1.7660   -0.0577 C.2       1 <0>         0.0650
      9 C9          1.0284    1.3113   -0.7592 C.2       1 <0>         0.1400
     10 C10        -0.2647   -0.5941   -1.6358 C.2       1 <0>         0.4212
     11 C11         4.0235   -3.9780   -2.8399 C.2       1 <0>         1.0330
     12 C12         3.7090   -2.4369   -5.6185 C.3       1 <0>         0.1800
     13 N1         -0.1529    3.8796    1.3826 N.1       1 <0>        -0.2180
     14 N2         -0.3347   -1.6742   -2.3474 N.2       1 <0>        -0.5760
     15 N3          1.7630   -2.8404   -2.4655 N.pl3     1 <0>        -0.1170
     16 O1          3.9487   -4.4946   -1.6912 O.co2     1 <0>        -0.9000
     17 O2          4.9592   -4.1174   -3.6748 O.co2     1 <0>        -0.9000
     18 S1          1.3054   -1.5486   -4.5645 S.3       1 <0>        -0.0800
     19 Cl1         2.5118    2.1987   -0.6390 Cl        1 <0>        -0.1400
     20 H1         -2.2842    1.3637    0.3599 H         1 <0>         0.1500
     21 H2         -2.3877   -0.6693   -0.9897 H         1 <0>         0.1500
     22 H3          1.8656   -0.1645   -2.0415 H         1 <0>         0.1500
     23 H4          3.4828   -3.2527   -6.3238 H         1 <0>         0.0000
     24 H5          3.6687   -1.4876   -6.1784 H         1 <0>         0.0000
     25 H6          4.7561   -2.5551   -5.2923 H         1 <0>         0.0000
     26 H7          1.5836   -3.1933   -1.5285 H         1 <0>         0.4500
@<TRIPOS>BOND
     1    1    8 2
     2    1   13 2
     3    2    3 2
     4    2   11 1
     5    2   15 1
     6    3   12 1
     7    3   18 1
     8    4   14 1
     9    4   15 2
    10    4   18 1
    11    5    6 2
    12    5    8 1
    13    6   10 1
    14    7    9 2
    15    7   10 1
    16    8    9 1
    17    9   19 1
    18   10   14 2
    19   11   16 1
    20   11   17 2
    21    5   20 1
    22    6   21 1
    23    7   22 1
    24   12   23 1
    25   12   24 1
    26   12   25 1
    27   15   26 1
