@<TRIPOS>MOLECULE
*****
   27    29     0     0     0
SMALL
USER_CHARGES

@<TRIPOS>ATOM
      1 C1          7.0641    0.0985   -1.6325 C.ar      1 <0>        -0.1500
      2 C2          6.2763   -0.9403   -2.1283 C.ar      1 <0>        -0.1500
      3 C3          6.4645    1.2745   -1.1818 C.ar      1 <0>        -0.1500
      4 C4          4.8890   -0.8031   -2.1735 C.ar      1 <0>        -0.1500
      5 C5          5.0771    1.4118   -1.2270 C.ar      1 <0>        -0.1500
      6 C6          0.6594    0.2905   -0.8108 C.ar      1 <0>        -0.1500
      7 C7          0.1682    0.8407   -2.0012 C.ar      1 <0>         0.0000
      8 C8          4.2893    0.3729   -1.7229 C.ar      1 <0>         0.0000
      9 C9          2.0408    0.1283   -0.7048 C.ar      1 <0>         0.1770
     10 C10         2.8474    0.5150   -1.7699 C.ar      1 <0>         0.3100
     11 C11         1.0833    1.1833   -2.9845 C.ar      1 <0>         0.1054
     12 C12        -1.0794    1.1845   -2.5587 C.2       1 <0>         0.5988
     13 N1          2.4204    1.0506   -2.9391 N.ar      1 <0>        -0.5670
     14 N2         -0.9733    1.7005   -3.7877 N.2       1 <0>        -0.7068
     15 N3          0.3519    1.6873   -4.0192 N.pl3     1 <0>         0.2996
     16 N4         -2.3531    1.0051   -1.8866 N.4       1 <0>        -0.6600
     17 Cl1         2.6807   -0.5470    0.7490 Cl        1 <0>        -0.1770
     18 H1          8.1441   -0.0092   -1.5957 H         1 <0>         0.1500
     19 H2          6.7429   -1.8567   -2.4777 H         1 <0>         0.1500
     20 H3          7.0771    2.0833   -0.7943 H         1 <0>         0.1500
     21 H4          4.2885   -1.6221   -2.5627 H         1 <0>         0.1500
     22 H5          4.6238    2.3341   -0.8716 H         1 <0>         0.1500
     23 H6         -0.0129    0.0045   -0.0081 H         1 <0>         0.1500
     24 H7          0.6888    2.0380   -4.9070 H         1 <0>         0.2700
     25 H8         -2.2194    0.4580   -1.0274 H         1 <0>         0.4500
     26 H9         -2.7690    1.9109   -1.6375 H         1 <0>         0.4500
     27 H10        -3.0074    0.5052   -2.5010 H         1 <0>         0.4500
@<TRIPOS>BOND
     1    1    2 ar
     2    1    3 ar
     3    2    4 ar
     4    3    5 ar
     5    4    8 ar
     6    5    8 ar
     7    6    7 ar
     8    6    9 ar
     9    7   11 ar
    10    7   12 1
    11    8   10 1
    12    9   10 ar
    13    9   17 1
    14   10   13 ar
    15   11   13 ar
    16   11   15 1
    17   12   14 2
    18   12   16 1
    19   14   15 1
    20    1   18 1
    21    2   19 1
    22    3   20 1
    23    4   21 1
    24    5   22 1
    25    6   23 1
    26   15   24 1
    27   16   25 1
    28   16   26 1
    29   16   27 1
