@<TRIPOS>MOLECULE
*****
   42    43     0     0     0
SMALL
USER_CHARGES

@<TRIPOS>ATOM
      1 C1         -2.6113   -3.0792    0.4642 C.ar      1 <0>        -0.1500
      2 C2         -4.0455   -1.6824    1.8165 C.ar      1 <0>        -0.1500
      3 C3         -3.1279   -1.8215    0.7752 C.ar      1 <0>        -0.1435
      4 C4         -3.0122   -4.1980    1.1946 C.ar      1 <0>        -0.1435
      5 C5         -4.4465   -2.8011    2.5469 C.ar      1 <0>        -0.1435
      6 C6         -3.9298   -4.0589    2.2359 C.ar      1 <0>        -0.1710
      7 C7         -0.1972   -0.5431   -0.1943 C.2       1 <0>        -0.0500
      8 C8         -1.3385   -0.1296    0.3721 C.2       1 <0>        -0.1238
      9 C9         -1.1632    0.9017    1.4726 C.2       1 <0>         0.4856
     10 C10         1.1427    0.8603    1.1898 C.2       1 <0>         0.7110
     11 C11        -2.4214   -5.5219    0.8129 C.3       1 <0>         0.1435
     12 C12        -5.8304   -1.0851    3.7659 C.3       1 <0>         0.0000
     13 C13        -4.8415   -3.0278    5.0246 C.3       1 <0>         0.0000
     14 C14        -6.7785   -3.3686    3.5036 C.3       1 <0>         0.0000
     15 C15        -2.6951   -0.6134   -0.0135 C.3       1 <0>         0.2817
     16 C16        -5.4348   -2.5873    3.6536 C.3       1 <0>         0.1435
     17 N1          0.0214    1.3490    1.8356 N.2       1 <0>        -0.6610
     18 N2          2.2858    1.3340    1.5852 N.2       1 <0>        -0.8500
     19 N3          1.0255   -0.0748    0.1876 N.pl3     1 <0>        -0.5500
     20 N4         -2.2758    1.3935    2.1205 N.pl3     1 <0>        -0.8500
     21 O1         -4.2989   -5.0891    2.9086 O.3       1 <0>        -0.8290
     22 H1         -1.8957   -3.1851   -0.3480 H         1 <0>         0.1500
     23 H2         -4.4469   -0.7006    2.0571 H         1 <0>         0.1500
     24 H3         -0.1607   -1.2747   -0.9917 H         1 <0>         0.1500
     25 H4         -1.5013   -5.6980    1.3782 H         1 <0>         0.0000
     26 H5         -3.1240   -6.3366    1.0168 H         1 <0>         0.0000
     27 H6         -2.1912   -5.5530   -0.2573 H         1 <0>         0.0000
     28 H7         -6.5534   -0.9012    4.5691 H         1 <0>         0.0000
     29 H8         -4.9593   -0.4525    3.9686 H         1 <0>         0.0000
     30 H9         -6.2784   -0.7372    2.8275 H         1 <0>         0.0000
     31 H10        -5.5560   -2.8757    5.8410 H         1 <0>         0.0000
     32 H11        -4.5603   -4.0873    5.0386 H         1 <0>         0.0000
     33 H12        -3.9450   -2.4416    5.2586 H         1 <0>         0.0000
     34 H13        -7.4670   -3.1798    4.3361 H         1 <0>         0.0000
     35 H14        -7.2997   -3.0797    2.5834 H         1 <0>         0.0000
     36 H15        -6.6018   -4.4500    3.4711 H         1 <0>         0.0000
     37 H16        -2.7059   -0.8537   -1.0837 H         1 <0>         0.0000
     38 H17        -3.4194    0.1994    0.1175 H         1 <0>         0.0000
     39 H18         3.0298    0.8988    1.0363 H         1 <0>         0.4000
     40 H19         1.8410   -0.4392   -0.2919 H         1 <0>         0.4000
     41 H20        -3.1626    1.0525    1.8419 H         1 <0>         0.4000
     42 H21        -2.1371    2.0651    2.8347 H         1 <0>         0.4000
@<TRIPOS>BOND
     1    1    3 ar
     2    1    4 ar
     3    2    3 ar
     4    2    5 ar
     5    3   15 1
     6    4    6 ar
     7    4   11 1
     8    5    6 ar
     9    5   16 1
    10    6   21 1
    11    7    8 2
    12    7   19 1
    13    8    9 1
    14    8   15 1
    15    9   17 2
    16    9   20 1
    17   10   17 1
    18   10   18 2
    19   10   19 1
    20   12   16 1
    21   13   16 1
    22   14   16 1
    23    1   22 1
    24    2   23 1
    25    7   24 1
    26   11   25 1
    27   11   26 1
    28   11   27 1
    29   12   28 1
    30   12   29 1
    31   12   30 1
    32   13   31 1
    33   13   32 1
    34   13   33 1
    35   14   34 1
    36   14   35 1
    37   14   36 1
    38   15   37 1
    39   15   38 1
    40   18   39 1
    41   19   40 1
    42   20   41 1
    43   20   42 1
