@<TRIPOS>MOLECULE
*****
   32    33     0     0     0
SMALL
USER_CHARGES

@<TRIPOS>ATOM
      1 C1          5.1125    1.6142   -4.8904 C.2       1 <0>        -0.1500
      2 C2          4.2250    0.5830   -4.5004 C.2       1 <0>        -0.1500
      3 C3          5.1633    2.4941   -3.8343 C.2       1 <0>        -0.0100
      4 C4          3.7969    0.9060   -3.2338 C.2       1 <0>        -0.0400
      5 C5         -1.0474    0.7980    0.3712 C.2       1 <0>        -0.1500
      6 C6         -0.2329    1.3598   -0.5291 C.2       1 <0>         0.0288
      7 C7         -0.8371   -0.5293    0.9005 C.2       1 <0>        -0.0170
      8 C8          0.2048   -1.2802    0.5090 C.2       1 <0>         0.0018
      9 C9          0.9463    0.6036   -1.0204 C.2       1 <0>         0.3746
     10 C10        -0.5661    2.7148   -0.9806 C.2       1 <0>         0.7056
     11 C11         1.2136   -0.8022   -0.4934 C.3       1 <0>         0.1992
     12 C12         2.8596    0.2413   -2.2648 C.3       1 <0>         0.4260
     13 N1          1.7583    1.1140   -1.8919 N.2       1 <0>        -0.6960
     14 N2         -1.0028   -1.4512    3.4514 N.pl3     1 <0>        -0.9780
     15 O1         -1.6964    3.1609   -1.0436 O.2       1 <0>        -0.5700
     16 O2         -2.8929   -0.0819    2.3989 O.2       1 <0>        -0.6500
     17 O3         -2.4607   -2.4196    1.5799 O.2       1 <0>        -0.6500
     18 O4          4.3643    2.0695   -2.8204 O.3       1 <0>        -0.2800
     19 O5          0.5654    3.3719   -1.3085 O.3       1 <0>        -0.6500
     20 S1         -1.9596   -1.1430    2.0601 S.o2      1 <0>         1.4550
     21 Cl1         0.5223   -2.8800    1.0998 Cl        1 <0>        -0.1400
     22 H1          5.6477    1.7052   -5.8244 H         1 <0>         0.1500
     23 H2          3.9352   -0.2860   -5.0739 H         1 <0>         0.1500
     24 H3          5.6915    3.4194   -3.6573 H         1 <0>         0.1500
     25 H4         -1.9149    1.3391    0.7406 H         1 <0>         0.1500
     26 H5          2.2139   -0.7997   -0.0429 H         1 <0>         0.0000
     27 H6          1.2306   -1.4791   -1.3565 H         1 <0>         0.0000
     28 H7          2.4620   -0.6834   -2.6991 H         1 <0>         0.0000
     29 H8          3.4027   -0.0545   -1.3600 H         1 <0>         0.0000
     30 H9         -0.6201   -0.6325    3.9411 H         1 <0>         0.4200
     31 H10        -0.3261   -2.2224    3.3851 H         1 <0>         0.4200
     32 H11         0.3821    4.2850   -1.6165 H         1 <0>         0.5000
@<TRIPOS>BOND
     1    1    2 1
     2    1    3 2
     3    2    4 2
     4    3   18 1
     5    4   12 1
     6    4   18 1
     7    5    6 2
     8    5    7 1
     9    6    9 1
    10    6   10 1
    11    7    8 2
    12    7   20 1
    13    8   11 1
    14    8   21 1
    15    9   11 1
    16    9   13 2
    17   10   15 2
    18   10   19 1
    19   12   13 1
    20   14   20 1
    21   16   20 2
    22   17   20 2
    23    1   22 1
    24    2   23 1
    25    3   24 1
    26    5   25 1
    27   11   26 1
    28   11   27 1
    29   12   28 1
    30   12   29 1
    31   14   30 1
    32   14   31 1
    33   19   32 1
