@<TRIPOS>MOLECULE
*****
   29    30     0     0     0
SMALL
USER_CHARGES

@<TRIPOS>ATOM
      1 C1         -0.1866   -4.3460   -2.7622 C.ar      1 <0>        -0.1500
      2 C2          0.0787   -3.9309   -4.0671 C.ar      1 <0>        -0.1500
      3 C3         -0.6958   -3.4399   -1.8320 C.ar      1 <0>        -0.1500
      4 C4         -0.6742   -1.7034   -3.5116 C.ar      1 <0>        -0.1500
      5 C5         -0.1650   -2.6096   -4.4418 C.ar      1 <0>        -0.1435
      6 C6         -0.9396   -2.1186   -2.2066 C.ar      1 <0>         0.2970
      7 C7          0.7115    1.2367    1.2898 C.2       1 <0>        -0.1500
      8 C8         -0.7295    1.2407    1.2730 C.2       1 <0>        -0.1500
      9 C9          1.4163    0.4400    0.4757 C.2       1 <0>        -0.1500
     10 C10        -1.4422    0.4579    0.4526 C.2       1 <0>        -0.1356
     11 C11         0.7597   -0.4570   -0.4618 C.2       1 <0>         0.0144
     12 C12        -0.7466   -0.4643   -0.4917 C.2       1 <0>         0.3712
     13 C13         1.4847   -1.2480   -1.2683 C.2       1 <0>         0.6940
     14 C14         0.1193   -2.1669   -5.8375 C.3       1 <0>         1.1635
     15 N1         -1.4539   -1.2057   -1.2693 N.pl3     1 <0>        -0.0970
     16 O1          0.8218   -2.0906   -2.1496 O.co2     1 <0>        -0.8470
     17 O2          2.8692   -1.1918   -1.1895 O.co2     1 <0>        -0.8470
     18 F1          0.6136   -3.1585   -6.6363 F         1 <0>        -0.3400
     19 F2         -0.9801   -1.6941   -6.4957 F         1 <0>        -0.3400
     20 F3          1.0395   -1.1603   -5.8917 F         1 <0>        -0.3400
     21 H1          0.0031   -5.3749   -2.4706 H         1 <0>         0.1500
     22 H2          0.4758   -4.6437   -4.7849 H         1 <0>         0.1500
     23 H3         -0.8972   -3.7806   -0.8188 H         1 <0>         0.1500
     24 H4         -0.8606   -0.6739   -3.8118 H         1 <0>         0.1500
     25 H5          1.2133    1.9020    1.9839 H         1 <0>         0.1500
     26 H6         -1.2332    1.9120    1.9606 H         1 <0>         0.1500
     27 H7          2.5015    0.4612    0.5122 H         1 <0>         0.1500
     28 H8         -2.5268    0.4838    0.4640 H         1 <0>         0.1500
     29 H9         -2.4706   -1.1370   -1.2120 H         1 <0>         0.4000
@<TRIPOS>BOND
     1    1    2 ar
     2    1    3 ar
     3    2    5 ar
     4    3    6 ar
     5    4    5 ar
     6    4    6 ar
     7    5   14 1
     8    6   15 1
     9    7    8 1
    10    7    9 2
    11    8   10 2
    12    9   11 1
    13   10   12 1
    14   11   12 1
    15   11   13 2
    16   12   15 2
    17   13   16 1
    18   13   17 1
    19   14   18 1
    20   14   19 1
    21   14   20 1
    22    1   21 1
    23    2   22 1
    24    3   23 1
    25    4   24 1
    26    7   25 1
    27    8   26 1
    28    9   27 1
    29   10   28 1
    30   15   29 1
