@<TRIPOS>MOLECULE
*****
   18    19     0     0     0
SMALL
USER_CHARGES

@<TRIPOS>ATOM
      1 C1          0.2175   -0.4688   -0.9561 C.ar      1 <0>        -0.1500
      2 C2         -0.6742   -1.4085   -1.4795 C.ar      1 <0>        -0.1500
      3 C3          1.6756   -0.7186   -2.8730 C.ar      1 <0>        -0.1500
      4 C4          0.7916   -1.6713   -3.4245 C.ar      1 <0>         0.2272
      5 C5          1.3776   -0.1269   -1.6421 C.ar      1 <0>         0.0825
      6 C6         -0.3685   -1.9990   -2.7163 C.ar      1 <0>         0.0400
      7 C7         -0.0585   -3.1484   -4.8253 C.2       1 <0>         0.1981
      8 C8         -0.2172   -4.0155   -6.0130 C.3       1 <0>         0.1800
      9 N1          0.9552   -2.3379   -4.6301 N.2       1 <0>        -0.5653
     10 O1          2.2323    0.7921   -1.1121 O.3       1 <0>        -0.5325
     11 S1         -1.2595   -3.1758   -3.6075 S.3       1 <0>        -0.0800
     12 H1         -0.0071   -0.0015   -0.0000 H         1 <0>         0.1500
     13 H2         -1.5780   -1.6698   -0.9377 H         1 <0>         0.1500
     14 H3          2.5828   -0.4477   -3.4063 H         1 <0>         0.1500
     15 H4          0.2496   -4.9992   -5.8482 H         1 <0>         0.0000
     16 H5         -1.2781   -4.1825   -6.2609 H         1 <0>         0.0000
     17 H6          0.2417   -3.5701   -6.9109 H         1 <0>         0.0000
     18 H7          2.9906    0.9242   -1.7025 H         1 <0>         0.4500
@<TRIPOS>BOND
     1    1    2 ar
     2    1    5 ar
     3    2    6 ar
     4    3    4 ar
     5    3    5 ar
     6    4    6 ar
     7    4    9 1
     8    5   10 1
     9    6   11 1
    10    7    8 1
    11    7    9 2
    12    7   11 1
    13    1   12 1
    14    2   13 1
    15    3   14 1
    16    8   15 1
    17    8   16 1
    18    8   17 1
    19   10   18 1
