@<TRIPOS>MOLECULE
*****
   39    40     0     0     0
SMALL
USER_CHARGES

@<TRIPOS>ATOM
      1 C1          2.4635   -0.7267    3.8272 C.ar      1 <0>        -0.1500
      2 C2          3.1133    0.9478    2.2115 C.ar      1 <0>        -0.1500
      3 C3          2.1181    0.2142    2.8572 C.ar      1 <0>        -0.1435
      4 C4          4.7994   -0.2003    3.5061 C.ar      1 <0>        -0.1710
      5 C5          3.8042   -0.9339    4.1518 C.ar      1 <0>         0.0825
      6 C6          4.4541    0.7405    2.5360 C.ar      1 <0>         0.0825
      7 C7          0.3912    0.1919    1.0558 C.2       1 <0>        -0.1238
      8 C8          0.1730    1.1242    0.0926 C.2       1 <0>         0.2000
      9 C9          0.3328   -1.2172    0.5643 C.2       1 <0>         0.5856
     10 C10        -0.1096   -0.6424   -1.5722 C.2       1 <0>         0.7110
     11 C11         4.3085   -3.2013    4.6618 C.3       1 <0>         0.2800
     12 C12         5.9144    0.9362    0.6692 C.3       1 <0>         0.2800
     13 C13         0.5086   -3.4599    1.1275 C.3       1 <0>         0.2800
     14 C14         0.6733    0.4375    2.5075 C.3       1 <0>         0.2817
     15 N1          0.1047   -1.6342   -0.6374 N.2       1 <0>        -0.6610
     16 N2         -0.3414   -1.0345   -2.7883 N.2       1 <0>        -0.8500
     17 N3         -0.0729    0.6849   -1.2037 N.pl3     1 <0>        -0.5500
     18 N4          0.1865    2.4722    0.3500 N.pl3     1 <0>        -0.9000
     19 O1          6.0342   -0.3912    3.8050 O.3       1 <0>        -0.8290
     20 O2          4.0936   -1.8660    5.1083 O.3       1 <0>        -0.3625
     21 O3          5.3934    1.4828    1.8768 O.3       1 <0>        -0.3625
     22 O4          0.5558   -2.1081    1.5547 O.3       1 <0>        -0.4300
     23 H1          1.6885   -1.2993    4.3313 H         1 <0>         0.1500
     24 H2          2.8453    1.6815    1.4550 H         1 <0>         0.1500
     25 H3          4.5294   -3.8419    5.5192 H         1 <0>         0.0000
     26 H4          5.1418   -3.2204    3.9549 H         1 <0>         0.0000
     27 H5          3.4038   -3.5601    4.1654 H         1 <0>         0.0000
     28 H6          6.6507    1.6235    0.2452 H         1 <0>         0.0000
     29 H7          5.0991    0.7755   -0.0406 H         1 <0>         0.0000
     30 H8          6.3961   -0.0192    0.8902 H         1 <0>         0.0000
     31 H9          0.6972   -4.1186    1.9787 H         1 <0>         0.0000
     32 H10         1.2610   -3.6244    0.3521 H         1 <0>         0.0000
     33 H11        -0.4834   -3.6695    0.7203 H         1 <0>         0.0000
     34 H12         0.0405   -0.2212    3.1100 H         1 <0>         0.0000
     35 H13         0.3745    1.4596    2.7575 H         1 <0>         0.0000
     36 H14        -0.4821   -0.2118   -3.3783 H         1 <0>         0.4000
     37 H15        -0.2309    1.4116   -1.8938 H         1 <0>         0.4000
     38 H16         0.3636    2.7703    1.2804 H         1 <0>         0.4000
     39 H17         0.0187    3.0957   -0.4042 H         1 <0>         0.4000
@<TRIPOS>BOND
     1    1    3 ar
     2    1    5 ar
     3    2    3 ar
     4    2    6 ar
     5    3   14 1
     6    4    5 ar
     7    4    6 ar
     8    4   19 1
     9    5   20 1
    10    6   21 1
    11    7    8 2
    12    7    9 1
    13    7   14 1
    14    8   17 1
    15    8   18 1
    16    9   15 2
    17    9   22 1
    18   10   15 1
    19   10   16 2
    20   10   17 1
    21   11   20 1
    22   12   21 1
    23   13   22 1
    24    1   23 1
    25    2   24 1
    26   11   25 1
    27   11   26 1
    28   11   27 1
    29   12   28 1
    30   12   29 1
    31   12   30 1
    32   13   31 1
    33   13   32 1
    34   13   33 1
    35   14   34 1
    36   14   35 1
    37   16   36 1
    38   17   37 1
    39   18   38 1
    40   18   39 1
