@<TRIPOS>MOLECULE
*****
   40    41     0     0     0
SMALL
USER_CHARGES

@<TRIPOS>ATOM
      1 C1          3.0444   -0.0625    1.8517 C.ar      1 <0>        -0.1500
      2 C2          2.5324    0.2840    4.1872 C.ar      1 <0>        -0.1500
      3 C3          2.1181    0.2142    2.8572 C.ar      1 <0>        -0.1435
      4 C4          4.3852   -0.2694    2.1764 C.ar      1 <0>         0.0825
      5 C5          3.8731    0.0771    4.5119 C.ar      1 <0>         0.0825
      6 C6          4.7995   -0.1996    3.5065 C.ar      1 <0>         0.0825
      7 C7          0.0678   -0.7367    1.7991 C.2       1 <0>        -0.1238
      8 C8         -0.2230   -0.8369    0.4762 C.2       1 <0>         0.2000
      9 C9         -0.2721   -1.9560    2.5918 C.2       1 <0>         0.5856
     10 C10        -1.0691   -3.1037    0.8201 C.2       1 <0>         0.7110
     11 C11         4.7739   -0.5924   -0.1475 C.3       1 <0>         0.2800
     12 C12         3.2549    0.4356    6.7802 C.3       1 <0>         0.2800
     13 C13        -0.2741   -2.9497    4.6870 C.3       1 <0>         0.2800
     14 C14         0.6733    0.4375    2.5075 C.3       1 <0>         0.2817
     15 N1         -0.7957   -3.0604    2.1717 N.2       1 <0>        -0.6610
     16 N2         -1.5960   -4.2027    0.3718 N.2       1 <0>        -0.8500
     17 N3         -0.7863   -2.0217    0.0149 N.pl3     1 <0>        -0.5500
     18 N4          0.0170    0.1797   -0.4139 N.pl3     1 <0>        -0.9000
     19 O1          6.1099   -0.4018    3.8238 O.3       1 <0>        -0.5325
     20 O2          5.2798   -0.5388    1.1849 O.3       1 <0>        -0.3625
     21 O3          4.2647    0.1482    5.8149 O.3       1 <0>        -0.3625
     22 O4          0.0343   -1.8112    3.8992 O.3       1 <0>        -0.4300
     23 H1          2.7239   -0.1173    0.8141 H         1 <0>         0.1500
     24 H2          1.8122    0.4995    4.9729 H         1 <0>         0.1500
     25 H3          5.5900   -0.8150   -0.8392 H         1 <0>         0.0000
     26 H4          4.3166    0.3667   -0.4033 H         1 <0>         0.0000
     27 H5          4.0206   -1.3812   -0.2103 H         1 <0>         0.0000
     28 H6          3.7007    0.4637    7.7775 H         1 <0>         0.0000
     29 H7          2.4794   -0.3334    6.7376 H         1 <0>         0.0000
     30 H8          2.8131    1.4088    6.5535 H         1 <0>         0.0000
     31 H9          0.0001   -2.7589    5.7275 H         1 <0>         0.0000
     32 H10         0.2740   -3.8158    4.3076 H         1 <0>         0.0000
     33 H11        -1.3473   -3.1446    4.6253 H         1 <0>         0.0000
     34 H12         0.0993    0.6400    3.4168 H         1 <0>         0.0000
     35 H13         0.5669    1.3244    1.8761 H         1 <0>         0.0000
     36 H14        -1.7485   -4.1081   -0.6344 H         1 <0>         0.4000
     37 H15        -0.9886   -2.0572   -0.9786 H         1 <0>         0.4000
     38 H16         0.4197    1.0194   -0.0694 H         1 <0>         0.4000
     39 H17        -0.2215    0.0352   -1.3668 H         1 <0>         0.4000
     40 H18         6.6239   -0.5820    3.0214 H         1 <0>         0.4500
@<TRIPOS>BOND
     1    1    3 ar
     2    1    4 ar
     3    2    3 ar
     4    2    5 ar
     5    3   14 1
     6    4    6 ar
     7    4   20 1
     8    5    6 ar
     9    5   21 1
    10    6   19 1
    11    7    8 2
    12    7    9 1
    13    7   14 1
    14    8   17 1
    15    8   18 1
    16    9   15 2
    17    9   22 1
    18   10   15 1
    19   10   16 2
    20   10   17 1
    21   11   20 1
    22   12   21 1
    23   13   22 1
    24    1   23 1
    25    2   24 1
    26   11   25 1
    27   11   26 1
    28   11   27 1
    29   12   28 1
    30   12   29 1
    31   12   30 1
    32   13   31 1
    33   13   32 1
    34   13   33 1
    35   14   34 1
    36   14   35 1
    37   16   36 1
    38   17   37 1
    39   18   38 1
    40   18   39 1
    41   19   40 1
