@<TRIPOS>MOLECULE
*****
   48    51     0     0     0
SMALL
USER_CHARGES

@<TRIPOS>ATOM
      1 C1         -6.6651   -7.7717    4.0711 C.ar      1 <0>        -0.1500
      2 C2         -5.3109   -8.1202    3.8811 C.ar      1 <0>        -0.1500
      3 C3         -7.0407   -6.6169    4.7722 C.ar      1 <0>        -0.1090
      4 C4         -4.2661   -7.3310    4.3832 C.ar      1 <0>        -0.1090
      5 C5         -1.9882   -6.0713    1.1149 C.ar      1 <0>         0.1600
      6 C6         -3.7914   -5.5119   -0.2606 C.ar      1 <0>         0.1600
      7 C7         -2.1753   -3.1285    3.2072 C.ar      1 <0>         0.2110
      8 C8         -2.7551   -5.0781    0.5406 C.ar      1 <0>        -0.1435
      9 C9         -2.9791   -3.0935    2.0788 C.ar      1 <0>        -0.1435
     10 C10        -5.9945   -5.8450    5.2636 C.ar      1 <0>         0.3090
     11 C11        -4.6540   -6.1900    5.0756 C.ar      1 <0>         0.3090
     12 C12        -4.2514   -2.5637    2.2293 C.ar      1 <0>         0.3925
     13 C13        -4.7313   -4.2943    6.2351 C.cat     1 <0>         0.6560
     14 C14        -3.2476   -7.6849    0.1262 C.ar      1 <0>         0.7025
     15 C15        -3.8888   -2.1639    4.4333 C.ar      1 <0>         0.7725
     16 C16        -7.1710   -3.9394    6.4097 C.3       1 <0>         0.5140
     17 C17        -2.6344   -9.9411    0.5610 C.3       1 <0>         0.2800
     18 C18        -2.4775   -3.6050    0.7758 C.3       1 <0>         0.2870
     19 C19        -4.2959   -3.0873    6.9817 C.3       1 <0>         0.3740
     20 N1         -2.2071   -7.3895    0.9284 N.ar      1 <0>        -0.6200
     21 N2         -4.0673   -6.8124   -0.4907 N.ar      1 <0>        -0.6200
     22 N3         -4.7431   -2.0877    3.3936 N.ar      1 <0>        -0.6200
     23 N4         -5.9901   -4.6683    5.9841 N.pl3     1 <0>        -0.7640
     24 N5         -2.6472   -2.6606    4.3707 N.ar      1 <0>        -0.1790
     25 N6         -3.9137   -5.2030    5.6932 N.pl3     1 <0>        -0.7000
     26 O1         -5.0907   -2.5051    1.1468 O.3       1 <0>        -0.5325
     27 O2         -3.4994   -9.0201   -0.0877 O.3       1 <0>        -0.3625
     28 S1         -4.4406   -1.5611    5.9981 S.3       1 <0>        -0.3315
     29 H1         -7.4384   -8.4178    3.6615 H         1 <0>         0.1500
     30 H2         -5.0720   -9.0269    3.3296 H         1 <0>         0.1500
     31 H3         -8.0770   -6.3423    4.9223 H         1 <0>         0.1500
     32 H4         -3.2237   -7.5870    4.2445 H         1 <0>         0.1500
     33 H5         -1.1501   -5.8341    1.7624 H         1 <0>         0.1500
     34 H6         -4.4524   -4.8091   -0.7583 H         1 <0>         0.1500
     35 H7         -1.1658   -3.5150    3.2294 H         1 <0>         0.1500
     36 H8         -7.4609   -4.3130    7.3953 H         1 <0>         0.0000
     37 H9         -6.9418   -2.8712    6.4579 H         1 <0>         0.0000
     38 H10        -7.9754   -4.1008    5.6866 H         1 <0>         0.0000
     39 H11        -2.9362  -10.9618    0.3136 H         1 <0>         0.0000
     40 H12        -2.6819   -9.7876    1.6420 H         1 <0>         0.0000
     41 H13        -1.6117   -9.7722    0.2155 H         1 <0>         0.0000
     42 H14        -1.3898   -3.4306    0.6795 H         1 <0>         0.0000
     43 H15        -2.9065   -3.0260   -0.0630 H         1 <0>         0.0000
     44 H16        -4.8846   -2.9553    7.9045 H         1 <0>         0.0000
     45 H17        -3.2475   -3.1814    7.3095 H         1 <0>         0.0000
     46 H18        -2.0646   -2.6813    5.2059 H         1 <0>         0.4570
     47 H19        -2.8984   -5.1712    5.7304 H         1 <0>         0.4500
     48 H20        -5.9351   -2.1135    1.4093 H         1 <0>         0.4500
@<TRIPOS>BOND
     1    1    2 ar
     2    1    3 ar
     3    2    4 ar
     4    3   10 ar
     5    4   11 ar
     6    5    8 ar
     7    5   20 ar
     8    6    8 ar
     9    6   21 ar
    10    7    9 ar
    11    7   24 ar
    12    8   18 1
    13    9   12 ar
    14    9   18 1
    15   10   11 ar
    16   10   23 1
    17   11   25 1
    18   12   22 ar
    19   12   26 1
    20   13   19 1
    21   13   23 1
    22   13   25 2
    23   14   20 ar
    24   14   21 ar
    25   14   27 1
    26   15   22 ar
    27   15   24 ar
    28   15   28 1
    29   16   23 1
    30   17   27 1
    31   19   28 1
    32    1   29 1
    33    2   30 1
    34    3   31 1
    35    4   32 1
    36    5   33 1
    37    6   34 1
    38    7   35 1
    39   16   36 1
    40   16   37 1
    41   16   38 1
    42   17   39 1
    43   17   40 1
    44   17   41 1
    45   18   42 1
    46   18   43 1
    47   19   44 1
    48   19   45 1
    49   24   46 1
    50   25   47 1
    51   26   48 1
