@<TRIPOS>MOLECULE
*****
   37    39     0     0     0
SMALL
USER_CHARGES

@<TRIPOS>ATOM
      1 C1         -0.5844    0.2711    2.4769 C.ar      1 <0>        -0.1500
      2 C2          0.1620   -0.2247    1.4065 C.ar      1 <0>        -0.1500
      3 C3          0.0074    1.1198    3.4142 C.ar      1 <0>        -0.1500
      4 C4          1.5053    0.1238    1.2647 C.ar      1 <0>        -0.1500
      5 C5          1.0542    4.2537    7.2404 C.ar      1 <0>        -0.1500
      6 C6          1.4564    4.6293    8.5221 C.ar      1 <0>        -0.1500
      7 C7          2.7993    2.5838    7.1822 C.ar      1 <0>        -0.1500
      8 C8          1.3583    1.4786    3.2836 C.ar      1 <0>         0.0000
      9 C9          2.1041    0.9726    2.1988 C.ar      1 <0>         0.3610
     10 C10         1.7256    3.2309    6.5705 C.ar      1 <0>         0.1000
     11 C11         2.5301    3.9822    9.1338 C.ar      1 <0>         0.0825
     12 C12         3.2015    2.9594    8.4639 C.ar      1 <0>         0.0825
     13 C13         2.0290    2.3210    4.1739 C.ar      1 <0>         0.4100
     14 C14         3.9565    2.1407    2.9923 C.ar      1 <0>         0.8480
     15 C15         2.1747    5.4119   11.0008 C.3       1 <0>         0.2800
     16 C16         4.8834    1.2863    8.2979 C.3       1 <0>         0.2800
     17 N1          3.3269    2.6718    4.0571 N.ar      1 <0>        -0.6200
     18 N2          3.3977    1.3262    2.0884 N.ar      1 <0>        -0.1790
     19 N3          1.3207    2.8533    5.2811 N.pl3     1 <0>        -0.6000
     20 O1          2.9135    4.3583   10.3858 O.3       1 <0>        -0.3625
     21 O2          4.2519    2.3202    9.0504 O.3       1 <0>        -0.3625
     22 Cl1         5.6074    2.5843    2.8364 Cl        1 <0>        -0.1770
     23 H1         -1.6303   -0.0041    2.5804 H         1 <0>         0.1500
     24 H2         -0.3054   -0.8846    0.6810 H         1 <0>         0.1500
     25 H3         -0.6045    1.4865    4.2346 H         1 <0>         0.1500
     26 H4          2.0760   -0.2676    0.4271 H         1 <0>         0.1500
     27 H5          0.2160    4.7645    6.7735 H         1 <0>         0.1500
     28 H6          0.9292    5.4267    9.0387 H         1 <0>         0.1500
     29 H7          3.3256    1.7861    6.6629 H         1 <0>         0.1500
     30 H8          2.5832    5.6127   11.9942 H         1 <0>         0.0000
     31 H9          1.1234    5.1236   11.0788 H         1 <0>         0.0000
     32 H10         2.2592    6.3112   10.3860 H         1 <0>         0.0000
     33 H11         5.7039    0.8600    8.8802 H         1 <0>         0.0000
     34 H12         5.2638    1.6977    7.3595 H         1 <0>         0.0000
     35 H13         4.1500    0.5061    8.0806 H         1 <0>         0.0000
     36 H14         3.9632    0.9775    1.3154 H         1 <0>         0.4570
     37 H15         0.3332    2.9837    5.0980 H         1 <0>         0.4000
@<TRIPOS>BOND
     1    1    2 ar
     2    1    3 ar
     3    2    4 ar
     4    3    8 ar
     5    4    9 ar
     6    5    6 ar
     7    5   10 ar
     8    6   11 ar
     9    7   10 ar
    10    7   12 ar
    11    8    9 ar
    12    8   13 ar
    13    9   18 ar
    14   10   19 1
    15   11   12 ar
    16   11   20 1
    17   12   21 1
    18   13   17 ar
    19   13   19 1
    20   14   17 ar
    21   14   18 ar
    22   14   22 1
    23   15   20 1
    24   16   21 1
    25    1   23 1
    26    2   24 1
    27    3   25 1
    28    4   26 1
    29    5   27 1
    30    6   28 1
    31    7   29 1
    32   15   30 1
    33   15   31 1
    34   15   32 1
    35   16   33 1
    36   16   34 1
    37   16   35 1
    38   18   36 1
    39   19   37 1
