@<TRIPOS>MOLECULE
*****
   36    38     0     0     0
SMALL
USER_CHARGES

@<TRIPOS>ATOM
      1 C1          2.0002    2.7388   -0.2293 C.ar      1 <0>        -0.1500
      2 C2          2.2844    4.0318   -0.6627 C.ar      1 <0>        -0.1500
      3 C3          0.6863    2.3623    0.0534 C.ar      1 <0>        -0.1500
      4 C4          1.2549    4.9598   -0.8172 C.ar      1 <0>        -0.1500
      5 C5         -4.0122    1.8053    2.0943 C.ar      1 <0>        -0.1500
      6 C6         -5.3719    1.6018    2.3297 C.ar      1 <0>        -0.1500
      7 C7         -4.3039    1.1027   -0.1988 C.ar      1 <0>        -0.1500
      8 C8         -0.3511    3.2881   -0.0990 C.ar      1 <0>         0.0862
      9 C9         -0.0718    4.6080   -0.5398 C.ar      1 <0>         0.1790
     10 C10        -3.4782    1.5558    0.8301 C.ar      1 <0>         0.1790
     11 C11        -6.1976    1.1487    1.3009 C.ar      1 <0>         0.0825
     12 C12        -5.6637    0.8991    0.0366 C.ar      1 <0>         0.0825
     13 C13        -1.7841    2.9461    0.1884 C.2       1 <0>         0.4138
     14 C14        -2.2851    5.2381   -0.4496 C.2       1 <0>         0.7090
     15 C15        -7.9890    1.2327    2.8628 C.3       1 <0>         0.2800
     16 C16        -5.8357    0.2244   -2.2374 C.3       1 <0>         0.2800
     17 N1         -1.0695    5.6029   -0.7174 N.2       1 <0>        -0.6290
     18 N2         -2.1103    1.7597    0.5932 N.2       1 <0>        -0.6290
     19 N3         -2.6610    3.9919   -0.0196 N.pl3     1 <0>        -0.5000
     20 O1         -7.5240    0.9541    1.5437 O.3       1 <0>        -0.3625
     21 O2         -6.4598    0.4552   -0.9759 O.3       1 <0>        -0.3625
     22 Cl1        -3.5466    6.3794   -0.6376 Cl        1 <0>        -0.2090
     23 H1          2.8055    2.0192   -0.1106 H         1 <0>         0.1500
     24 H2          3.3093    4.3179   -0.8809 H         1 <0>         0.1500
     25 H3          0.4909    1.3480    0.3898 H         1 <0>         0.1500
     26 H4          1.4946    5.9649   -1.1565 H         1 <0>         0.1500
     27 H5         -3.3766    2.1589    2.9020 H         1 <0>         0.1500
     28 H6         -5.7811    1.7978    3.3172 H         1 <0>         0.1500
     29 H7         -3.8908    0.9062   -1.1853 H         1 <0>         0.1500
     30 H8         -9.0624    1.0362    2.9206 H         1 <0>         0.0000
     31 H9         -7.7853    2.2780    3.1087 H         1 <0>         0.0000
     32 H10        -7.4638    0.5853    3.5690 H         1 <0>         0.0000
     33 H11        -6.5815   -0.1264   -2.9549 H         1 <0>         0.0000
     34 H12        -5.0455   -0.5218   -2.1228 H         1 <0>         0.0000
     35 H13        -5.4010    1.1606   -2.5955 H         1 <0>         0.0000
     36 H14        -3.6482    3.8277    0.1570 H         1 <0>         0.4000
@<TRIPOS>BOND
     1    1    2 ar
     2    1    3 ar
     3    2    4 ar
     4    3    8 ar
     5    4    9 ar
     6    5    6 ar
     7    5   10 ar
     8    6   11 ar
     9    7   10 ar
    10    7   12 ar
    11    8    9 ar
    12    8   13 1
    13    9   17 1
    14   10   18 1
    15   11   12 ar
    16   11   20 1
    17   12   21 1
    18   13   18 2
    19   13   19 1
    20   14   17 2
    21   14   19 1
    22   14   22 1
    23   15   20 1
    24   16   21 1
    25    1   23 1
    26    2   24 1
    27    3   25 1
    28    4   26 1
    29    5   27 1
    30    6   28 1
    31    7   29 1
    32   15   30 1
    33   15   31 1
    34   15   32 1
    35   16   33 1
    36   16   34 1
    37   16   35 1
    38   19   36 1
