@<TRIPOS>MOLECULE
*****
   30    31     0     0     0
SMALL
USER_CHARGES

@<TRIPOS>ATOM
      1 C1          1.8851   -1.0363   -0.1124 C.ar      1 <0>        -0.1500
      2 C2          0.8066   -0.4630    0.5610 C.ar      1 <0>        -0.1500
      3 C3          0.0269    1.5330    6.8789 C.ar      1 <0>        -0.1500
      4 C4          2.9210   -1.6309    0.6081 C.ar      1 <0>        -0.1500
      5 C5          0.7638   -0.4841    1.9551 C.ar      1 <0>        -0.1500
      6 C6          1.0150    1.9903    6.0071 C.ar      1 <0>        -0.1500
      7 C7         -0.3921    0.2037    6.8226 C.ar      1 <0>        -0.1500
      8 C8          2.8783   -1.6520    2.0022 C.ar      1 <0>        -0.1435
      9 C9          1.7997   -1.0786    2.6757 C.ar      1 <0>         0.1000
     10 C10         1.1650   -0.2110    5.0226 C.ar      1 <0>         0.1000
     11 C11         1.5841    1.1183    5.0789 C.ar      1 <0>         0.1770
     12 C12         0.1769   -0.6683    5.8945 C.ar      1 <0>         0.1770
     13 C13         3.6115   -3.6680    3.2332 C.2       1 <0>         0.6590
     14 C14         4.0014   -2.2955    2.7485 C.3       1 <0>         0.2045
     15 N1          1.7396   -1.0907    4.0865 N.pl3     1 <0>        -0.6000
     16 O1          2.4932   -4.1485    3.0981 O.2       1 <0>        -0.5700
     17 O2          4.6250   -4.3098    3.8666 O.3       1 <0>        -0.6500
     18 Cl1         2.8056    1.7306    4.0209 Cl        1 <0>        -0.1770
     19 Cl2        -0.3757   -2.3055    5.8624 Cl        1 <0>        -0.1770
     20 H1          1.9183   -1.0198   -1.1979 H         1 <0>         0.1500
     21 H2          0.0001   -0.0002   -0.0002 H         1 <0>         0.1500
     22 H3         -0.4167    2.2113    7.6019 H         1 <0>         0.1500
     23 H4          3.7569   -2.0748    0.0739 H         1 <0>         0.1500
     24 H5         -0.0818   -0.0342    2.4690 H         1 <0>         0.1500
     25 H6          1.3296    3.0294    6.0650 H         1 <0>         0.1500
     26 H7         -1.1634   -0.1361    7.5097 H         1 <0>         0.1500
     27 H8          4.3313   -1.6823    3.5950 H         1 <0>         0.0000
     28 H9          4.8868   -2.4033    2.1102 H         1 <0>         0.0000
     29 H10         2.2028   -1.8913    4.5046 H         1 <0>         0.4000
     30 H11         4.4045   -5.1992    4.2169 H         1 <0>         0.5000
@<TRIPOS>BOND
     1    1    2 ar
     2    1    4 ar
     3    2    5 ar
     4    3    6 ar
     5    3    7 ar
     6    4    8 ar
     7    5    9 ar
     8    6   11 ar
     9    7   12 ar
    10    8    9 ar
    11    8   14 1
    12    9   15 1
    13   10   11 ar
    14   10   12 ar
    15   10   15 1
    16   11   18 1
    17   12   19 1
    18   13   14 1
    19   13   16 2
    20   13   17 1
    21    1   20 1
    22    2   21 1
    23    3   22 1
    24    4   23 1
    25    5   24 1
    26    6   25 1
    27    7   26 1
    28   14   27 1
    29   14   28 1
    30   15   29 1
    31   17   30 1
