@<TRIPOS>MOLECULE
*****
   17    18     0     0     0
SMALL
USER_CHARGES

@<TRIPOS>ATOM
      1 C1          0.4132   -0.8496    0.5371 C.ar      1 <0>        -0.1500
      2 C2         -0.3220   -2.0324    0.6323 C.ar      1 <0>        -0.1500
      3 C3          2.2393   -1.8196    1.8257 C.ar      1 <0>        -0.1500
      4 C4          1.5125   -2.9953    1.9225 C.ar      1 <0>         0.1000
      5 C5          1.6824   -0.7439    1.1282 C.ar      1 <0>        -0.1710
      6 C6          0.2373   -3.0938    1.3252 C.ar      1 <0>         0.1015
      7 C7          0.9785   -5.1670    2.5053 C.2       1 <0>         0.2010
      8 C8          1.0881   -6.3920    3.0357 C.2       1 <0>        -0.3000
      9 N1          1.9166   -4.1596    2.5791 N.pl3     1 <0>        -0.6000
     10 O1          2.3381    0.3528    1.0273 O.3       1 <0>        -0.8290
     11 S1         -0.4905   -4.7161    1.5965 S.3       1 <0>        -0.2025
     12 H1         -0.0253   -0.0132   -0.0064 H         1 <0>         0.1500
     13 H2         -1.3017   -2.1072    0.1727 H         1 <0>         0.1500
     14 H3          3.2215   -1.7528    2.2888 H         1 <0>         0.1500
     15 H4          0.2908   -7.1136    2.9207 H         1 <0>         0.1500
     16 H5          1.9752   -6.6750    3.5857 H         1 <0>         0.1500
     17 H6          2.7971   -4.2679    3.0566 H         1 <0>         0.4000
@<TRIPOS>BOND
     1    1    2 ar
     2    1    5 ar
     3    2    6 ar
     4    3    4 ar
     5    3    5 ar
     6    4    6 ar
     7    4    9 1
     8    5   10 1
     9    6   11 1
    10    7    8 2
    11    7    9 1
    12    7   11 1
    13    1   12 1
    14    2   13 1
    15    3   14 1
    16    8   15 1
    17    8   16 1
    18    9   17 1
