@<TRIPOS>MOLECULE
*****
   29    30     0     0     0
SMALL
USER_CHARGES

@<TRIPOS>ATOM
      1 C1          1.8851   -1.0363   -0.1124 C.ar      1 <0>        -0.1500
      2 C2          0.8066   -0.4630    0.5610 C.ar      1 <0>        -0.1500
      3 C3         -1.1037    0.4103    6.7958 C.ar      1 <0>        -0.1500
      4 C4          2.9210   -1.6309    0.6081 C.ar      1 <0>        -0.1500
      5 C5          0.7638   -0.4841    1.9551 C.ar      1 <0>        -0.1500
      6 C6         -1.2178   -0.8940    6.3149 C.ar      1 <0>        -0.1500
      7 C7         -0.0467    1.2183    6.3766 C.ar      1 <0>        -0.1500
      8 C8          2.8783   -1.6520    2.0022 C.ar      1 <0>         0.0284
      9 C9          1.7997   -1.0786    2.6757 C.ar      1 <0>         0.1000
     10 C10         0.7821   -0.5824    4.9955 C.ar      1 <0>         0.1000
     11 C11        -0.2749   -1.3904    5.4148 C.ar      1 <0>         0.1770
     12 C12         0.8961    0.7219    5.4765 C.ar      1 <0>         0.1770
     13 C13         3.9798   -2.2806    2.7212 C.2       1 <0>        -0.1784
     14 C14         5.1377   -1.6918    3.1333 C.2       1 <0>        -0.0733
     15 N1          1.7323   -1.0828    4.0876 N.pl3     1 <0>        -0.6000
     16 O1          6.0953   -2.2340    3.7572 O.3       1 <0>        -0.8500
     17 O2          5.1667   -0.3250    2.7888 O.3       1 <0>        -0.5267
     18 Cl1        -0.4591   -3.0118    4.8458 Cl        1 <0>        -0.1770
     19 Cl2         2.1880    1.7606    4.9873 Cl        1 <0>        -0.1770
     20 H1          1.9177   -1.0197   -1.1979 H         1 <0>         0.1500
     21 H2          0.0005   -0.0001   -0.0003 H         1 <0>         0.1500
     22 H3         -1.8375    0.7975    7.4967 H         1 <0>         0.1500
     23 H4          3.7547   -2.0718    0.0666 H         1 <0>         0.1500
     24 H5         -0.0808   -0.0323    2.4693 H         1 <0>         0.1500
     25 H6         -2.0480   -1.5096    6.6522 H         1 <0>         0.1500
     26 H7          0.0270    2.2326    6.7614 H         1 <0>         0.1500
     27 H8          3.8440   -3.3503    2.9181 H         1 <0>         0.1500
     28 H9          2.5264   -1.5352    4.5281 H         1 <0>         0.4000
     29 H10         6.0205    0.0047    3.1200 H         1 <0>         0.4500
@<TRIPOS>BOND
     1    1    2 ar
     2    1    4 ar
     3    2    5 ar
     4    3    6 ar
     5    3    7 ar
     6    4    8 ar
     7    5    9 ar
     8    6   11 ar
     9    7   12 ar
    10    8    9 ar
    11    8   13 1
    12    9   15 1
    13   10   11 ar
    14   10   12 ar
    15   10   15 1
    16   11   18 1
    17   12   19 1
    18   13   14 2
    19   14   16 1
    20   14   17 1
    21    1   20 1
    22    2   21 1
    23    3   22 1
    24    4   23 1
    25    5   24 1
    26    6   25 1
    27    7   26 1
    28   13   27 1
    29   15   28 1
    30   17   29 1
