@<TRIPOS>MOLECULE
*****
   40    41     0     0     0
SMALL
USER_CHARGES

@<TRIPOS>ATOM
      1 C1          3.4342    2.3911   -0.3590 C.ar      1 <0>        -0.1500
      2 C2          2.6189    2.8801    1.8620 C.ar      1 <0>        -0.1500
      3 C3          2.3701    2.5797    0.5228 C.ar      1 <0>        -0.1435
      4 C4          4.7472    2.5029    0.0983 C.ar      1 <0>         0.0825
      5 C5          3.9320    2.9919    2.3194 C.ar      1 <0>         0.0825
      6 C6          4.9961    2.8033    1.4375 C.ar      1 <0>         0.0825
      7 C7          0.3164    1.1653    0.4268 C.2       1 <0>        -0.1238
      8 C8         -0.6040    1.0141    1.3956 C.2       1 <0>         0.1767
      9 C9          0.7304   -0.0782   -0.3110 C.2       1 <0>         0.6466
     10 C10        -0.7240   -1.3343    0.9853 C.2       1 <0>         0.5500
     11 C11         5.4364    2.0125   -2.1244 C.3       1 <0>         0.2800
     12 C12         3.0180    3.4633    4.4637 C.3       1 <0>         0.2800
     13 C13        -2.4400    2.2915    2.0078 C.3       1 <0>         0.2800
     14 C14         0.9541    2.4595    0.0298 C.3       1 <0>         0.2817
     15 N1          0.1644   -1.2938    0.0259 N.2       1 <0>        -0.6610
     16 N2          1.6069   -0.0603   -1.2619 N.2       1 <0>        -0.8500
     17 N3         -1.1268   -0.2196    1.6816 N.pl3     1 <0>        -0.5500
     18 N4         -1.3367   -2.4927    1.3864 N.pl3     1 <0>        -0.8500
     19 O1          6.2795    2.9125    1.8845 O.3       1 <0>        -0.5325
     20 O2          5.7775    2.3162   -0.7733 O.3       1 <0>        -0.3625
     21 O3          4.1613    3.2859    3.6297 O.3       1 <0>        -0.3625
     22 O4         -1.0525    2.0888    2.1321 O.3       1 <0>        -0.3567
     23 H1          3.2427    2.1569   -1.4035 H         1 <0>         0.1500
     24 H2          1.7911    3.0276    2.5515 H         1 <0>         0.1500
     25 H3          6.3491    1.8882   -2.7123 H         1 <0>         0.0000
     26 H4          4.8306    2.8221   -2.5390 H         1 <0>         0.0000
     27 H5          4.8626    1.0830   -2.1458 H         1 <0>         0.0000
     28 H6          3.3411    3.6929    5.4821 H         1 <0>         0.0000
     29 H7          2.4166    2.5508    4.4579 H         1 <0>         0.0000
     30 H8          2.4214    4.2931    4.0774 H         1 <0>         0.0000
     31 H9         -2.7386    3.1528    2.6103 H         1 <0>         0.0000
     32 H10        -2.9713    1.3971    2.3429 H         1 <0>         0.0000
     33 H11        -2.6787    2.4831    0.9590 H         1 <0>         0.0000
     34 H12         0.3561    3.2894    0.4210 H         1 <0>         0.0000
     35 H13         0.9233    2.5517   -1.0607 H         1 <0>         0.0000
     36 H14         1.7330   -1.0117   -1.6185 H         1 <0>         0.4000
     37 H15        -1.8174   -0.2795    2.4208 H         1 <0>         0.4000
     38 H16        -1.0928   -3.3386    0.9252 H         1 <0>         0.4000
     39 H17        -2.0019   -2.4433    2.1231 H         1 <0>         0.4000
     40 H18         6.2867    3.1236    2.8309 H         1 <0>         0.4500
@<TRIPOS>BOND
     1    1    3 ar
     2    1    4 ar
     3    2    3 ar
     4    2    5 ar
     5    3   14 1
     6    4    6 ar
     7    4   20 1
     8    5    6 ar
     9    5   21 1
    10    6   19 1
    11    7    8 2
    12    7    9 1
    13    7   14 1
    14    8   17 1
    15    8   22 1
    16    9   15 1
    17    9   16 2
    18   10   15 2
    19   10   17 1
    20   10   18 1
    21   11   20 1
    22   12   21 1
    23   13   22 1
    24    1   23 1
    25    2   24 1
    26   11   25 1
    27   11   26 1
    28   11   27 1
    29   12   28 1
    30   12   29 1
    31   12   30 1
    32   13   31 1
    33   13   32 1
    34   13   33 1
    35   14   34 1
    36   14   35 1
    37   16   36 1
    38   17   37 1
    39   18   38 1
    40   18   39 1
    41   19   40 1
