@<TRIPOS>MOLECULE
*****
   35    36     0     0     0
SMALL
USER_CHARGES

@<TRIPOS>ATOM
      1 C1          4.0079   -0.5634    0.3443 C.ar      1 <0>        -0.1500
      2 C2          3.1737   -1.6641    0.1356 C.ar      1 <0>        -0.1500
      3 C3          4.6237   -0.3497    1.5839 C.ar      1 <0>        -0.1500
      4 C4          2.9245   -2.5895    1.1545 C.ar      1 <0>        -0.1500
      5 C5          4.3842   -1.2693    2.6190 C.ar      1 <0>         0.2272
      6 C6          3.5482   -2.3565    2.3806 C.ar      1 <0>        -0.1516
      7 C7          4.3268   -2.3639    4.4515 C.2       1 <0>         0.0065
      8 C8          3.5253   -2.8860    7.9342 C.2       1 <0>         0.7500
      9 C9          3.3493   -5.4851    8.3501 C.3       1 <0>         0.0000
     10 C10         5.8147   -5.5107    8.8301 C.3       1 <0>         0.0000
     11 C11         4.2199   -4.5694   10.5268 C.3       1 <0>         0.0000
     12 C12         4.5207   -2.8446    5.8322 C.3       1 <0>         0.4260
     13 C13         4.5032   -4.7561    9.0369 C.3       1 <0>         0.2800
     14 N1          4.8585   -1.2907    3.9105 N.2       1 <0>        -0.5653
     15 N2          3.3696   -2.5545    6.7071 N.2       1 <0>        -0.6960
     16 N3          3.5298   -3.0394    3.5697 N.pl3     1 <0>         0.0332
     17 O1          2.6091   -2.7175    8.9179 O.3       1 <0>        -0.6000
     18 O2          4.6491   -3.4634    8.4346 O.3       1 <0>        -0.4300
     19 H1          4.1827    0.1382   -0.4675 H         1 <0>         0.1500
     20 H2          2.7078   -1.8043   -0.8368 H         1 <0>         0.1500
     21 H3          5.2709    0.5083    1.7352 H         1 <0>         0.1500
     22 H4          2.2781   -3.4449    0.9940 H         1 <0>         0.1500
     23 H5          2.4061   -4.9466    8.4962 H         1 <0>         0.0000
     24 H6          3.5243   -5.5945    7.2748 H         1 <0>         0.0000
     25 H7          3.2056   -6.4828    8.7806 H         1 <0>         0.0000
     26 H8          6.6454   -4.9912    9.3213 H         1 <0>         0.0000
     27 H9          6.0704   -5.5644    7.7657 H         1 <0>         0.0000
     28 H10         5.7610   -6.5301    9.2257 H         1 <0>         0.0000
     29 H11         5.0475   -4.0465   11.0197 H         1 <0>         0.0000
     30 H12         3.3013   -3.9977   10.6941 H         1 <0>         0.0000
     31 H13         4.1233   -5.5385   11.0295 H         1 <0>         0.0000
     32 H14         4.7076   -3.9347    5.8593 H         1 <0>         0.0000
     33 H15         5.4173   -2.3920    6.2951 H         1 <0>         0.0000
     34 H16         3.0176   -3.8912    3.7575 H         1 <0>         0.2700
     35 H17         1.7954   -2.3047    8.5801 H         1 <0>         0.4500
@<TRIPOS>BOND
     1    1    2 ar
     2    1    3 ar
     3    2    4 ar
     4    3    5 ar
     5    4    6 ar
     6    5    6 ar
     7    5   14 1
     8    6   16 1
     9    7   12 1
    10    7   14 2
    11    7   16 1
    12    8   15 2
    13    8   17 1
    14    8   18 1
    15    9   13 1
    16   10   13 1
    17   11   13 1
    18   12   15 1
    19   13   18 1
    20    1   19 1
    21    2   20 1
    22    3   21 1
    23    4   22 1
    24    9   23 1
    25    9   24 1
    26    9   25 1
    27   10   26 1
    28   10   27 1
    29   10   28 1
    30   11   29 1
    31   11   30 1
    32   11   31 1
    33   12   32 1
    34   12   33 1
    35   16   34 1
    36   17   35 1
