@<TRIPOS>MOLECULE
*****
   39    40     0     0     0
SMALL
USER_CHARGES

@<TRIPOS>ATOM
      1 C1          3.3633   -1.6569   -0.2706 C.ar      1 <0>        -0.1500
      2 C2          3.7970   -1.3818    2.0901 C.ar      1 <0>        -0.1500
      3 C3          2.9011   -1.6039    1.0443 C.ar      1 <0>        -0.1435
      4 C4          4.7216   -1.4881   -0.5398 C.ar      1 <0>         0.0825
      5 C5          5.1552   -1.2130    1.8209 C.ar      1 <0>         0.0825
      6 C6          5.6175   -1.2661    0.5060 C.ar      1 <0>         0.0825
      7 C7          1.1192   -3.1428    1.8713 C.2       1 <0>        -0.1238
      8 C8          0.8203   -3.5177    3.1373 C.2       1 <0>        -0.1000
      9 C9          1.1016   -4.3155    0.9847 C.2       1 <0>         0.5856
     10 C10         0.5568   -5.7397    2.6736 C.2       1 <0>         0.4410
     11 C11         4.1791   -1.7730   -2.8377 C.3       1 <0>         0.2800
     12 C12         5.4653   -0.9568    4.1649 C.3       1 <0>         0.2800
     13 C13         1.3775   -5.1414   -1.1646 C.3       1 <0>         0.2800
     14 C14         1.4352   -1.7858    1.3350 C.3       1 <0>         0.2817
     15 N1          0.5366   -4.7686    3.5912 N.2       1 <0>        -0.5800
     16 N2          0.8427   -5.5272    1.3415 N.2       1 <0>        -0.6610
     17 N3          0.2944   -6.9493    3.0484 N.2       1 <0>        -0.8500
     18 N4          0.7706   -2.6051    4.1625 N.pl3     1 <0>        -0.9000
     19 O1          6.9450   -1.1010    0.2428 O.3       1 <0>        -0.5325
     20 O2          5.1601   -1.5422   -1.8286 O.3       1 <0>        -0.3625
     21 O3          6.0197   -0.9966    2.8515 O.3       1 <0>        -0.3625
     22 O4          1.3911   -4.0174   -0.2975 O.3       1 <0>        -0.4300
     23 H1          2.6669   -1.8297   -1.0876 H         1 <0>         0.1500
     24 H2          3.4392   -1.3400    3.1161 H         1 <0>         0.1500
     25 H3          4.6614   -1.7930   -3.8180 H         1 <0>         0.0000
     26 H4          3.4281   -0.9796   -2.8054 H         1 <0>         0.0000
     27 H5          3.6972   -2.7358   -2.6515 H         1 <0>         0.0000
     28 H6          6.2612   -0.7776    4.8919 H         1 <0>         0.0000
     29 H7          4.9674   -1.9056    4.3801 H         1 <0>         0.0000
     30 H8          4.7363   -0.1447    4.2185 H         1 <0>         0.0000
     31 H9          1.6202   -4.8214   -2.1809 H         1 <0>         0.0000
     32 H10         0.3888   -5.6067   -1.1439 H         1 <0>         0.0000
     33 H11         2.1245   -5.8622   -0.8239 H         1 <0>         0.0000
     34 H12         1.1079   -1.0263    2.0546 H         1 <0>         0.0000
     35 H13         0.8468   -1.6122    0.4269 H         1 <0>         0.0000
     36 H14         0.3499   -7.5706    2.2366 H         1 <0>         0.4000
     37 H15         0.9609   -1.6542    3.9522 H         1 <0>         0.4000
     38 H16         0.5466   -2.9340    5.0716 H         1 <0>         0.4000
     39 H17         7.4337   -0.9569    1.0679 H         1 <0>         0.4500
@<TRIPOS>BOND
     1    1    3 ar
     2    1    4 ar
     3    2    3 ar
     4    2    5 ar
     5    3   14 1
     6    4    6 ar
     7    4   20 1
     8    5    6 ar
     9    5   21 1
    10    6   19 1
    11    7    8 2
    12    7    9 1
    13    7   14 1
    14    8   15 1
    15    8   18 1
    16    9   16 2
    17    9   22 1
    18   10   15 1
    19   10   16 1
    20   10   17 2
    21   11   20 1
    22   12   21 1
    23   13   22 1
    24    1   23 1
    25    2   24 1
    26   11   25 1
    27   11   26 1
    28   11   27 1
    29   12   28 1
    30   12   29 1
    31   12   30 1
    32   13   31 1
    33   13   32 1
    34   13   33 1
    35   14   34 1
    36   14   35 1
    37   17   36 1
    38   18   37 1
    39   18   38 1
    40   19   39 1
