@<TRIPOS>MOLECULE
*****
   27    29     0     0     0
SMALL
USER_CHARGES

@<TRIPOS>ATOM
      1 C1         -5.5082   -0.7630   -2.5020 C.ar      1 <0>        -0.1500
      2 C2         -5.3664   -0.0463   -1.3138 C.ar      1 <0>        -0.1500
      3 C3         -4.3851   -1.3017   -3.1299 C.ar      1 <0>        -0.1500
      4 C4         -4.1014    0.1318   -0.7535 C.ar      1 <0>        -0.1500
      5 C5         -3.1202   -1.1235   -2.5697 C.ar      1 <0>        -0.1500
      6 C6         -2.9783   -0.4068   -1.3815 C.ar      1 <0>         0.0862
      7 C7         -0.3689   -0.2774    1.2510 C.2       1 <0>        -0.2882
      8 C8         -1.6541   -0.2202   -0.7949 C.2       1 <0>         0.3494
      9 C9         -1.4293   -0.7612    0.5876 C.2       1 <0>         0.1544
     10 C10         0.4784    0.5004   -0.8738 C.2       1 <0>         0.6000
     11 C11         1.9653    0.5774    0.7843 C.cat     1 <0>         0.6038
     12 C12         0.5103    0.7549    0.6327 C.3       1 <0>         0.3042
     13 N1         -0.7335    0.3794   -1.4952 N.2       1 <0>        -0.6610
     14 N2          1.6124    0.3614   -1.4902 N.2       1 <0>        -0.2800
     15 N3          2.5033    0.4122   -0.4157 N.pl3     1 <0>        -0.4744
     16 N4          2.5509    0.6305    1.9653 N.pl3     1 <0>        -0.7544
     17 Cl1        -2.5045   -1.9040    1.2730 Cl        1 <0>        -0.1400
     18 H1         -6.4931   -0.9017   -2.9382 H         1 <0>         0.1500
     19 H2         -6.2409    0.3732   -0.8252 H         1 <0>         0.1500
     20 H3         -4.4956   -1.8599   -4.0549 H         1 <0>         0.1500
     21 H4         -4.0023    0.6920    0.1727 H         1 <0>         0.1500
     22 H5         -2.2521   -1.5476   -3.0677 H         1 <0>         0.1500
     23 H6         -0.1560   -0.5984    2.2664 H         1 <0>         0.1500
     24 H7          0.1935    1.7754    0.8637 H         1 <0>         0.0000
     25 H8          3.5030    0.2978   -0.5371 H         1 <0>         0.4500
     26 H9          2.0034    0.7965    2.8003 H         1 <0>         0.4500
     27 H10         3.5521    0.5057    2.0455 H         1 <0>         0.4500
@<TRIPOS>BOND
     1    1    2 ar
     2    1    3 ar
     3    2    4 ar
     4    3    5 ar
     5    4    6 ar
     6    5    6 ar
     7    6    8 1
     8    7    9 2
     9    7   12 1
    10    8    9 1
    11    8   13 2
    12    9   17 1
    13   10   12 1
    14   10   13 1
    15   10   14 2
    16   11   12 1
    17   11   15 1
    18   11   16 2
    19   14   15 1
    20    1   18 1
    21    2   19 1
    22    3   20 1
    23    4   21 1
    24    5   22 1
    25    7   23 1
    26   12   24 1
    27   15   25 1
    28   16   26 1
    29   16   27 1
