@<TRIPOS>MOLECULE
*****
   36    37     0     0     0
SMALL
USER_CHARGES

@<TRIPOS>ATOM
      1 C1         -2.3430   -1.4171   12.9505 C.ar      1 <0>        -0.1500
      2 C2         -3.2495   -2.4930   13.0609 C.ar      1 <0>        -0.1500
      3 C3         -1.8823   -0.9621   11.7067 C.ar      1 <0>        -0.1090
      4 C4         -3.7395   -3.1665   11.9328 C.ar      1 <0>        -0.1090
      5 C5         -2.3768   -1.6393   10.5982 C.ar      1 <0>         0.3090
      6 C6         -3.2741   -2.7043   10.7075 C.ar      1 <0>         0.3090
      7 C7         -2.8521   -2.3649    8.5508 C.cat     1 <0>         0.6560
      8 C8         -3.8004   -1.5868    5.1495 C.2       1 <0>         0.7500
      9 C9         -1.6285   -0.8538    3.8436 C.3       1 <0>         0.0000
     10 C10        -1.2468   -3.2653    3.2535 C.3       1 <0>         0.0000
     11 C11        -3.0556   -1.9651    2.0934 C.3       1 <0>         0.0000
     12 C12        -2.8707   -2.5017    7.0756 C.3       1 <0>         0.3900
     13 C13        -2.2888   -2.1587    3.4009 C.3       1 <0>         0.2800
     14 N1         -3.6946   -1.4719    6.4217 N.2       1 <0>        -0.6960
     15 N2         -2.1473   -1.4682    9.2484 N.pl3     1 <0>        -0.7000
     16 N3         -3.5370   -3.1181    9.4177 N.pl3     1 <0>        -0.7000
     17 O1         -4.5047   -0.7580    4.3419 O.3       1 <0>        -0.6000
     18 O2         -3.2140   -2.5692    4.4161 O.3       1 <0>        -0.4300
     19 H1         -1.9930   -0.9267   13.8565 H         1 <0>         0.1500
     20 H2         -3.5771   -2.8075   14.0491 H         1 <0>         0.1500
     21 H3         -1.1875   -0.1382   11.6087 H         1 <0>         0.1500
     22 H4         -4.4352   -3.9928   12.0041 H         1 <0>         0.1500
     23 H5         -2.3732   -0.0570    3.9506 H         1 <0>         0.0000
     24 H6         -1.1046   -0.9704    4.7979 H         1 <0>         0.0000
     25 H7         -0.9089   -0.5057    3.0939 H         1 <0>         0.0000
     26 H8         -1.7161   -4.2034    2.9359 H         1 <0>         0.0000
     27 H9         -0.7598   -3.4732    4.2131 H         1 <0>         0.0000
     28 H10        -0.4753   -2.9992    2.5237 H         1 <0>         0.0000
     29 H11        -3.5293   -2.9009    1.7756 H         1 <0>         0.0000
     30 H12        -3.8328   -1.2002    2.1911 H         1 <0>         0.0000
     31 H13        -2.3776   -1.6713    1.2839 H         1 <0>         0.0000
     32 H14        -1.8502   -2.4501    6.6579 H         1 <0>         0.0000
     33 H15        -3.2567   -3.4902    6.7735 H         1 <0>         0.0000
     34 H16        -1.5338   -0.7658    8.8443 H         1 <0>         0.4500
     35 H17        -4.1585   -3.8816    9.1648 H         1 <0>         0.4500
     36 H18        -4.9333   -0.0463    4.8482 H         1 <0>         0.4500
@<TRIPOS>BOND
     1    1    2 ar
     2    1    3 ar
     3    2    4 ar
     4    3    5 ar
     5    4    6 ar
     6    5    6 ar
     7    5   15 1
     8    6   16 1
     9    7   12 1
    10    7   15 1
    11    7   16 2
    12    8   14 2
    13    8   17 1
    14    8   18 1
    15    9   13 1
    16   10   13 1
    17   11   13 1
    18   12   14 1
    19   13   18 1
    20    1   19 1
    21    2   20 1
    22    3   21 1
    23    4   22 1
    24    9   23 1
    25    9   24 1
    26    9   25 1
    27   10   26 1
    28   10   27 1
    29   10   28 1
    30   11   29 1
    31   11   30 1
    32   11   31 1
    33   12   32 1
    34   12   33 1
    35   15   34 1
    36   16   35 1
    37   17   36 1
