@<TRIPOS>MOLECULE
*****
   41    42     0     0     0
SMALL
USER_CHARGES

@<TRIPOS>ATOM
      1 C1         -1.8244   -2.4936   -3.5667 C.ar      1 <0>        -0.1500
      2 C2         -2.7773   -2.4685   -1.3468 C.ar      1 <0>        -0.1500
      3 C3         -2.0882   -1.8222   -2.3729 C.ar      1 <0>        -0.1435
      4 C4         -2.2499   -3.8114   -3.7345 C.ar      1 <0>        -0.1435
      5 C5         -3.2028   -3.7863   -1.5145 C.ar      1 <0>        -0.1435
      6 C6         -2.9390   -4.4577   -2.7084 C.ar      1 <0>        -0.1710
      7 C7         -3.4954    0.9549   -1.1221 C.2       1 <0>         0.3756
      8 C8         -2.7398    0.5864   -2.3394 C.2       1 <0>        -0.1238
      9 C9         -3.1651    1.2097   -3.4673 C.2       1 <0>        -0.4000
     10 C10        -4.8541    2.3821   -2.2692 C.cat     1 <0>         0.2900
     11 C11        -1.9362   -4.4792   -5.0395 C.3       1 <0>         0.1435
     12 C12        -4.0834   -3.4391    0.8200 C.3       1 <0>         0.0000
     13 C13        -3.1837   -5.6886    0.1371 C.3       1 <0>         0.0000
     14 C14        -5.3871   -4.9054   -0.7071 C.3       1 <0>         0.0000
     15 C15        -1.6290   -0.3999   -2.1918 C.3       1 <0>         0.2817
     16 C16        -3.9383   -4.4264   -0.3758 C.3       1 <0>         0.1435
     17 N1         -4.1891    2.1063   -3.5515 N.2       1 <0>        -0.5700
     18 N2         -4.4781    1.7939   -1.1098 N.2       1 <0>        -0.6510
     19 N3         -2.6242    1.0290   -4.6989 N.2       1 <0>        -0.9500
     20 N4         -5.8107    3.1913   -2.2221 N.pl3     1 <0>        -0.1190
     21 O1         -3.3307   -5.6714   -2.8628 O.3       1 <0>        -0.8290
     22 H1         -1.2866   -1.9876   -4.3653 H         1 <0>         0.1500
     23 H2         -2.9817   -1.9429   -0.4168 H         1 <0>         0.1500
     24 H3         -3.1808    0.4703   -0.1839 H         1 <0>         0.0600
     25 H4         -0.9667   -4.9828   -4.9786 H         1 <0>         0.0000
     26 H5         -2.7035   -5.2174   -5.2951 H         1 <0>         0.0000
     27 H6         -1.9053   -3.7486   -5.8547 H         1 <0>         0.0000
     28 H7         -4.6186   -3.8831    1.6674 H         1 <0>         0.0000
     29 H8         -3.1070   -3.1122    1.1941 H         1 <0>         0.0000
     30 H9         -4.6339   -2.5428    0.5103 H         1 <0>         0.0000
     31 H10        -3.7129   -6.1645    0.9699 H         1 <0>         0.0000
     32 H11        -3.0628   -6.4501   -0.6423 H         1 <0>         0.0000
     33 H12        -2.1838   -5.4163    0.4953 H         1 <0>         0.0000
     34 H13        -5.8829   -5.3658    0.1560 H         1 <0>         0.0000
     35 H14        -6.0144   -4.0654   -1.0278 H         1 <0>         0.0000
     36 H15        -5.3794   -5.6520   -1.5098 H         1 <0>         0.0000
     37 H16        -1.1722   -0.2862   -1.2017 H         1 <0>         0.0000
     38 H17        -0.8402   -0.1639   -2.9151 H         1 <0>         0.0000
     39 H18        -1.9302    0.2963   -4.6108 H         1 <0>         0.1500
     40 H19        -6.1783    3.6989   -3.0605 H         1 <0>         0.4000
     41 H20        -6.3229    3.4281   -1.3404 H         1 <0>         0.4000
@<TRIPOS>BOND
     1    1    3 ar
     2    1    4 ar
     3    2    3 ar
     4    2    5 ar
     5    3   15 1
     6    4    6 ar
     7    4   11 1
     8    5    6 ar
     9    5   16 1
    10    6   21 1
    11    7    8 1
    12    7   18 2
    13    8    9 2
    14    8   15 1
    15    9   17 1
    16    9   19 1
    17   10   17 1
    18   10   18 1
    19   10   20 2
    20   12   16 1
    21   13   16 1
    22   14   16 1
    23    1   22 1
    24    2   23 1
    25    7   24 1
    26   11   25 1
    27   11   26 1
    28   11   27 1
    29   12   28 1
    30   12   29 1
    31   12   30 1
    32   13   31 1
    33   13   32 1
    34   13   33 1
    35   14   34 1
    36   14   35 1
    37   14   36 1
    38   15   37 1
    39   15   38 1
    40   19   39 1
    41   20   40 1
    42   20   41 1
