@<TRIPOS>MOLECULE
*****
   27    29     0     0     0
SMALL
USER_CHARGES

@<TRIPOS>ATOM
      1 C1         -0.4256   -2.6255   -5.4876 C.ar      1 <0>        -0.1500
      2 C2         -1.5804   -2.2249   -4.8156 C.ar      1 <0>        -0.1500
      3 C3          0.8219   -2.4736   -4.8823 C.ar      1 <0>        -0.1500
      4 C4         -1.4877   -1.6722   -3.5383 C.ar      1 <0>        -0.1500
      5 C5          0.9145   -1.9209   -3.6049 C.ar      1 <0>        -0.1500
      6 C6         -0.2402   -1.5202   -2.9329 C.ar      1 <0>         0.0284
      7 C7         -0.1426   -0.9418   -1.5961 C.2       1 <0>         0.1426
      8 C8          0.0516    0.2532    0.8887 C.2       1 <0>        -0.1238
      9 C9         -0.1947   -1.7409   -0.5007 C.2       1 <0>         0.0018
     10 C10         0.1807    1.2778    1.7153 C.2       1 <0>         0.5270
     11 C11         0.0898    0.9660   -0.3836 C.2       1 <0>         0.6466
     12 C12        -0.0997   -1.2102    0.9127 C.3       1 <0>         0.2764
     13 N1          0.0019    0.4390   -1.5583 N.2       1 <0>        -0.6210
     14 N2          0.2894    2.4894    1.1006 N.2       1 <0>        -0.1710
     15 N3          0.2365    2.3169   -0.1491 N.2       1 <0>        -0.2110
     16 N4          0.2054    1.1293    3.1087 N.4       1 <0>        -0.7060
     17 Cl1        -0.3764   -3.4651   -0.5911 Cl        1 <0>        -0.1400
     18 H1         -0.4979   -3.0570   -6.4817 H         1 <0>         0.1500
     19 H2         -2.5520   -2.3442   -5.2863 H         1 <0>         0.1500
     20 H3          1.7210   -2.7865   -5.4049 H         1 <0>         0.1500
     21 H4         -2.3968   -1.3645   -3.0270 H         1 <0>         0.1500
     22 H5          1.8942   -1.8090   -3.1464 H         1 <0>         0.1500
     23 H6          0.7618   -1.6614    1.4181 H         1 <0>         0.0000
     24 H7         -1.0058   -1.4778    1.4681 H         1 <0>         0.0000
     25 H8          0.1157    2.0345    3.5938 H         1 <0>         0.4500
     26 H9          1.0849    0.7009    3.4340 H         1 <0>         0.4500
     27 H10        -0.5624    0.5311    3.4484 H         1 <0>         0.4500
@<TRIPOS>BOND
     1    1    2 ar
     2    1    3 ar
     3    2    4 ar
     4    3    5 ar
     5    4    6 ar
     6    5    6 ar
     7    6    7 1
     8    7    9 2
     9    7   13 1
    10    8   10 2
    11    8   11 1
    12    8   12 1
    13    9   12 1
    14    9   17 1
    15   10   14 1
    16   10   16 1
    17   11   13 2
    18   11   15 1
    19   14   15 2
    20    1   18 1
    21    2   19 1
    22    3   20 1
    23    4   21 1
    24    5   22 1
    25   12   23 1
    26   12   24 1
    27   16   25 1
    28   16   26 1
    29   16   27 1
