@<TRIPOS>MOLECULE
*****
   41    43     0     0     0
SMALL
USER_CHARGES

@<TRIPOS>ATOM
      1 C1         -3.1333   -4.9575   -1.6150 C.ar      1 <0>        -0.1500
      2 C2         -4.5257   -3.1987   -2.5122 C.ar      1 <0>        -0.1500
      3 C3         -2.0611   -4.0688   -1.5368 C.ar      1 <0>        -0.1500
      4 C4         -3.4535   -2.3099   -2.4339 C.ar      1 <0>        -0.1500
      5 C5         -4.3656   -4.5225   -2.1028 C.ar      1 <0>        -0.1435
      6 C6         -2.2212   -2.7450   -1.9462 C.ar      1 <0>        -0.1435
      7 C7         -1.7646   -1.1698    0.4653 C.2       1 <0>        -0.0500
      8 C8         -0.8155   -1.3054   -0.4701 C.2       1 <0>        -0.1238
      9 C9          0.5827   -0.9272   -0.0146 C.2       1 <0>         0.4856
     10 C10        -0.2150   -0.3940    2.1016 C.2       1 <0>         0.7110
     11 C11         1.6455   -0.2820   -2.1360 C.3       1 <0>         0.3691
     12 C12         2.7057   -1.9723   -0.6831 C.3       1 <0>         0.3691
     13 C13         3.0253    0.3261   -2.3458 C.3       1 <0>         0.2800
     14 C14         4.0406   -1.2930   -0.9564 C.3       1 <0>         0.2800
     15 C15        -5.5125   -5.4720   -2.1868 C.3       1 <0>         0.1435
     16 C16        -1.0633   -1.7855   -1.8597 C.3       1 <0>         0.2817
     17 N1          0.8337   -0.5003    1.2060 N.2       1 <0>        -0.6610
     18 N2          0.0864    0.0313    3.2914 N.2       1 <0>        -0.8500
     19 N3         -1.4961   -0.7270    1.7271 N.pl3     1 <0>        -0.5500
     20 N4          1.6149   -1.0290   -0.8861 N.pl3     1 <0>        -0.7882
     21 O1          4.0329   -0.6872   -2.2539 O.3       1 <0>        -0.5600
     22 H1         -2.9993   -5.9873   -1.2944 H         1 <0>         0.1500
     23 H2         -5.4828   -2.8511   -2.8923 H         1 <0>         0.1500
     24 H3         -1.1051   -4.4160   -1.1540 H         1 <0>         0.1500
     25 H4         -3.5867   -1.2803   -2.7552 H         1 <0>         0.1500
     26 H5         -2.8082   -1.4000    0.2906 H         1 <0>         0.1500
     27 H6          0.8877    0.5108   -2.1584 H         1 <0>         0.0000
     28 H7          1.4162   -0.9811   -2.9507 H         1 <0>         0.0000
     29 H8          2.5609   -2.8079   -1.3802 H         1 <0>         0.0000
     30 H9          2.7059   -2.3865    0.3327 H         1 <0>         0.0000
     31 H10         3.0907    0.7697   -3.3443 H         1 <0>         0.0000
     32 H11         3.2329    1.1176   -1.6160 H         1 <0>         0.0000
     33 H12         4.2698   -0.5343   -0.1986 H         1 <0>         0.0000
     34 H13         4.8471   -2.0328   -0.9400 H         1 <0>         0.0000
     35 H14        -6.0916   -5.4550   -1.2553 H         1 <0>         0.0000
     36 H15        -6.1825   -5.2153   -3.0176 H         1 <0>         0.0000
     37 H16        -5.1673   -6.4992   -2.3631 H         1 <0>         0.0000
     38 H17        -0.1581   -2.2711   -2.2445 H         1 <0>         0.0000
     39 H18        -1.2409   -0.9234   -2.5136 H         1 <0>         0.0000
     40 H19        -0.7661    0.0657    3.8541 H         1 <0>         0.4000
     41 H20        -2.2716   -0.6526    2.3759 H         1 <0>         0.4000
@<TRIPOS>BOND
     1    1    3 ar
     2    1    5 ar
     3    2    4 ar
     4    2    5 ar
     5    3    6 ar
     6    4    6 ar
     7    5   15 1
     8    6   16 1
     9    7    8 2
    10    7   19 1
    11    8    9 1
    12    8   16 1
    13    9   17 2
    14    9   20 1
    15   10   17 1
    16   10   18 2
    17   10   19 1
    18   11   13 1
    19   11   20 1
    20   12   14 1
    21   12   20 1
    22   13   21 1
    23   14   21 1
    24    1   22 1
    25    2   23 1
    26    3   24 1
    27    4   25 1
    28    7   26 1
    29   11   27 1
    30   11   28 1
    31   12   29 1
    32   12   30 1
    33   13   31 1
    34   13   32 1
    35   14   33 1
    36   14   34 1
    37   15   35 1
    38   15   36 1
    39   15   37 1
    40   16   38 1
    41   16   39 1
    42   18   40 1
    43   19   41 1
