@<TRIPOS>MOLECULE
*****
   42    43     0     0     0
SMALL
USER_CHARGES

@<TRIPOS>ATOM
      1 C1         -2.2371   -2.8525    3.5490 C.ar      1 <0>        -0.1500
      2 C2         -3.1086   -1.7507    1.5834 C.ar      1 <0>        -0.1500
      3 C3         -3.2835   -6.1358    2.6349 C.ar      1 <0>         0.1600
      4 C4         -3.1733   -2.7849    2.5172 C.ar      1 <0>        -0.1435
      5 C5         -1.2363   -1.8858    3.6471 C.ar      1 <0>        -0.1435
      6 C6         -2.1077   -0.7840    1.6815 C.ar      1 <0>        -0.1435
      7 C7         -3.7730   -5.1329    1.8231 C.ar      1 <0>        -0.1435
      8 C8         -1.1715   -0.8516    2.7133 C.ar      1 <0>        -0.1710
      9 C9         -3.7981   -5.4165    0.4729 C.ar      1 <0>         0.4100
     10 C10        -2.9248   -7.4830    0.8394 C.ar      1 <0>         0.7200
     11 C11        -0.2597   -2.0129    4.7774 C.3       1 <0>         0.1435
     12 C12        -3.2521    0.1184   -0.3732 C.3       1 <0>         0.0000
     13 C13        -0.7514    0.2954   -0.1467 C.3       1 <0>         0.0000
     14 C14        -2.2439    1.7521    1.2068 C.3       1 <0>         0.0000
     15 C15        -4.2435   -3.8183    2.4123 C.3       1 <0>         0.2870
     16 C16        -2.0904    0.3299    0.6216 C.3       1 <0>         0.1435
     17 N1         -2.8493   -7.3276    2.1749 N.ar      1 <0>        -0.6200
     18 N2         -3.3800   -6.5855   -0.0555 N.ar      1 <0>        -0.6200
     19 N3         -4.2908   -4.4249   -0.4108 N.pl3     1 <0>        -0.9000
     20 N4         -2.4789   -8.7188    0.3220 N.pl3     1 <0>        -0.9000
     21 O1         -0.2497    0.0384    2.8035 O.3       1 <0>        -0.8290
     22 H1         -2.2895   -3.6600    4.2757 H         1 <0>         0.1500
     23 H2         -3.8397   -1.7002    0.7797 H         1 <0>         0.1500
     24 H3         -3.2220   -6.0126    3.7117 H         1 <0>         0.1500
     25 H4          0.5966   -2.6186    4.4658 H         1 <0>         0.0000
     26 H5          0.0996   -1.0288    5.0958 H         1 <0>         0.0000
     27 H6         -0.7287   -2.4836    5.6478 H         1 <0>         0.0000
     28 H7         -3.2625    0.9009   -1.1410 H         1 <0>         0.0000
     29 H8         -3.1809   -0.8417   -0.8960 H         1 <0>         0.0000
     30 H9         -4.2205    0.1422    0.1405 H         1 <0>         0.0000
     31 H10        -0.6940    1.0743   -0.9148 H         1 <0>         0.0000
     32 H11         0.0969    0.4503    0.5303 H         1 <0>         0.0000
     33 H12        -0.6079   -0.6702   -0.6459 H         1 <0>         0.0000
     34 H13        -2.2256    2.5096    0.4140 H         1 <0>         0.0000
     35 H14        -3.1942    1.8684    1.7409 H         1 <0>         0.0000
     36 H15        -1.4302    1.9929    1.9009 H         1 <0>         0.0000
     37 H16        -4.6930   -4.0115    3.4023 H         1 <0>         0.0000
     38 H17        -5.0890   -3.4403    1.8110 H         1 <0>         0.0000
     39 H18        -4.6469   -3.5750   -0.0306 H         1 <0>         0.4000
     40 H19        -4.3574   -4.6365   -1.3828 H         1 <0>         0.4000
     41 H20        -2.0893   -9.3950    0.9459 H         1 <0>         0.4000
     42 H21        -2.4735   -8.8579   -0.6674 H         1 <0>         0.4000
@<TRIPOS>BOND
     1    1    4 ar
     2    1    5 ar
     3    2    4 ar
     4    2    6 ar
     5    3    7 ar
     6    3   17 ar
     7    4   15 1
     8    5    8 ar
     9    5   11 1
    10    6    8 ar
    11    6   16 1
    12    7    9 ar
    13    7   15 1
    14    8   21 1
    15    9   18 ar
    16    9   19 1
    17   10   17 ar
    18   10   18 ar
    19   10   20 1
    20   12   16 1
    21   13   16 1
    22   14   16 1
    23    1   22 1
    24    2   23 1
    25    3   24 1
    26   11   25 1
    27   11   26 1
    28   11   27 1
    29   12   28 1
    30   12   29 1
    31   12   30 1
    32   13   31 1
    33   13   32 1
    34   13   33 1
    35   14   34 1
    36   14   35 1
    37   14   36 1
    38   15   37 1
    39   15   38 1
    40   19   39 1
    41   19   40 1
    42   20   41 1
    43   20   42 1
