@<TRIPOS>MOLECULE
*****
   26    27     0     0     0
SMALL
USER_CHARGES

@<TRIPOS>ATOM
      1 C1          4.0479   -9.3473   -1.5658 C.1       1 <0>         0.4841
      2 C2          4.3431   -6.9406   -1.6379 C.ar      1 <0>        -0.1500
      3 C3          4.0488   -5.6567   -1.1790 C.ar      1 <0>        -0.1500
      4 C4          2.5013   -6.5855    0.4272 C.ar      1 <0>        -0.1500
      5 C5          3.7164   -8.0470   -1.0644 C.ar      1 <0>         0.0730
      6 C6          3.1280   -5.4791   -0.1464 C.ar      1 <0>         0.1790
      7 C7          2.7956   -7.8694   -0.0318 C.ar      1 <0>         0.1770
      8 C8          0.2681   -2.0049   -0.8966 C.2       1 <0>        -0.1500
      9 C9         -0.0807   -2.9572   -1.7824 C.2       1 <0>        -0.0372
     10 C10         1.8605   -3.5839   -0.2742 C.2       1 <0>         0.6410
     11 C11        -0.4142   -0.6593   -0.7729 C.2       1 <0>         1.0500
     12 C12        -1.1531   -2.9657   -2.8154 C.3       1 <0>         0.1382
     13 N1          4.3166  -10.4007   -1.9720 N.1       1 <0>        -0.5571
     14 N2          2.8329   -4.1840    0.3172 N.2       1 <0>        -0.6290
     15 N3          1.3221   -2.3372   -0.0733 N.pl3     1 <0>        -0.5500
     16 O1          0.0751    0.2577   -1.4907 O.co2     1 <0>        -0.9000
     17 O2         -1.3866   -0.6236    0.0325 O.co2     1 <0>        -0.9000
     18 S1          0.9646   -4.3786   -1.5962 S.3       1 <0>        -0.2420
     19 Cl1         1.9930   -9.2059    0.7177 Cl        1 <0>        -0.1770
     20 H1          5.0631   -7.0598   -2.4445 H         1 <0>         0.1500
     21 H2          4.5416   -4.8004   -1.6317 H         1 <0>         0.1500
     22 H3          1.7864   -6.4381    1.2338 H         1 <0>         0.1500
     23 H4         -0.7676   -2.5725   -3.7576 H         1 <0>         0.0000
     24 H5         -1.9924   -2.3488   -2.4889 H         1 <0>         0.0000
     25 H6         -1.5110   -3.9847   -2.9744 H         1 <0>         0.0000
     26 H7          1.6498   -1.6801    0.6232 H         1 <0>         0.4000
@<TRIPOS>BOND
     1    1    5 1
     2    1   13 3
     3    2    3 ar
     4    2    5 ar
     5    3    6 ar
     6    4    6 ar
     7    4    7 ar
     8    5    7 ar
     9    6   14 1
    10    7   19 1
    11    8    9 2
    12    8   11 1
    13    8   15 1
    14    9   12 1
    15    9   18 1
    16   10   14 2
    17   10   15 1
    18   10   18 1
    19   11   16 1
    20   11   17 2
    21    2   20 1
    22    3   21 1
    23    4   22 1
    24   12   23 1
    25   12   24 1
    26   12   25 1
    27   15   26 1
