@<TRIPOS>MOLECULE
*****
   30    31     0     0     0
SMALL
USER_CHARGES

@<TRIPOS>ATOM
      1 C1          8.1083   -4.2645   -0.3145 C.ar      1 <0>        -0.1500
      2 C2          8.5079   -3.1454   -1.0449 C.ar      1 <0>        -0.1500
      3 C3          6.2577   -2.2722   -0.9379 C.ar      1 <0>        -0.1500
      4 C4          6.7834   -4.3876    0.1041 C.ar      1 <0>        -0.1435
      5 C5          5.8582   -3.3914   -0.2076 C.ar      1 <0>         0.1000
      6 C6          7.5826   -2.1492   -1.3565 C.ar      1 <0>         0.1770
      7 C7          0.9624   -2.6831   -0.5026 C.2       1 <0>        -0.1500
      8 C8         -0.1362   -2.9937    0.1955 C.2       1 <0>        -0.1500
      9 C9          2.1774   -3.1814    0.0974 C.2       1 <0>         0.1010
     10 C10         0.1446   -3.7556    1.3892 C.2       1 <0>         0.1010
     11 C11         3.4065   -3.0094   -0.3988 C.2       1 <0>        -0.0500
     12 C12        -0.7739   -4.1901    2.2576 C.2       1 <0>         0.1534
     13 C13         6.3827   -5.5980    0.8833 C.3       1 <0>         0.1435
     14 N1          4.5214   -3.4992    0.2050 N.pl3     1 <0>        -0.6000
     15 O1         -0.3941   -4.9117    3.3684 O.3       1 <0>        -0.5267
     16 O2         -2.1092   -3.9199    2.0508 O.3       1 <0>        -0.5267
     17 S1          1.8581   -4.0546    1.5798 S.3       1 <0>        -0.2020
     18 Cl1         8.0759   -0.7680   -2.2573 Cl        1 <0>        -0.1770
     19 H1          8.8370   -5.0354   -0.0776 H         1 <0>         0.1500
     20 H2          9.5436   -3.0626   -1.3640 H         1 <0>         0.1500
     21 H3          5.5344   -1.4963   -1.1798 H         1 <0>         0.1500
     22 H4          0.9498   -2.1177   -1.4239 H         1 <0>         0.1500
     23 H5         -1.1364   -2.7078   -0.0986 H         1 <0>         0.1500
     24 H6          3.5745   -2.4649   -1.3187 H         1 <0>         0.1500
     25 H7          6.5124   -5.4181    1.9565 H         1 <0>         0.0000
     26 H8          5.3342   -5.8596    0.6962 H         1 <0>         0.0000
     27 H9          6.9854   -6.4690    0.5987 H         1 <0>         0.0000
     28 H10         4.3547   -4.0063    1.0647 H         1 <0>         0.4000
     29 H11        -1.2063   -5.1255    3.8582 H         1 <0>         0.4500
     30 H12        -2.5967   -4.3213    2.7898 H         1 <0>         0.4500
@<TRIPOS>BOND
     1    1    2 ar
     2    1    4 ar
     3    2    6 ar
     4    3    5 ar
     5    3    6 ar
     6    4    5 ar
     7    4   13 1
     8    5   14 1
     9    6   18 1
    10    7    8 2
    11    7    9 1
    12    8   10 1
    13    9   11 2
    14    9   17 1
    15   10   12 2
    16   10   17 1
    17   11   14 1
    18   12   15 1
    19   12   16 1
    20    1   19 1
    21    2   20 1
    22    3   21 1
    23    7   22 1
    24    8   23 1
    25   11   24 1
    26   13   25 1
    27   13   26 1
    28   13   27 1
    29   14   28 1
    30   15   29 1
    31   16   30 1
