@<TRIPOS>MOLECULE
*****
   36    38     0     0     0
SMALL
USER_CHARGES

@<TRIPOS>ATOM
      1 C1          2.1370   -3.2099   -3.2992 C.ar      1 <0>        -0.1500
      2 C2          0.8529   -3.7608   -3.2031 C.ar      1 <0>        -0.1500
      3 C3         -0.1021   -1.6029   -2.5975 C.ar      1 <0>        -0.1500
      4 C4          2.2992   -1.8383   -3.0406 C.ar      1 <0>         0.2272
      5 C5          1.1857   -1.0759   -2.6992 C.ar      1 <0>        -0.1516
      6 C6         -0.2454   -2.9697   -2.8584 C.ar      1 <0>         0.1110
      7 C7          3.0288    0.1469   -2.7472 C.2       1 <0>         0.4975
      8 C8          1.1524    0.4705    0.1995 C.3       1 <0>         0.0000
      9 C9         -0.0155    2.6622   -0.1843 C.3       1 <0>         0.0000
     10 C10         1.1770    0.8268    1.6837 C.3       1 <0>         0.2800
     11 C11         0.0788    2.8930    1.3215 C.3       1 <0>         0.2800
     12 C12         1.1027    1.7311   -0.6743 C.3       1 <0>         0.2800
     13 C13         0.9132    1.3670   -2.1464 C.3       1 <0>         0.2556
     14 N1          3.4350   -1.0618   -3.0653 N.2       1 <0>        -0.5653
     15 N2          1.6818    0.1895   -2.5173 N.pl3     1 <0>         0.0476
     16 N3          3.9242    1.2917   -2.6558 N.4       1 <0>        -0.6610
     17 O1          0.0637    1.6515    2.0245 O.3       1 <0>        -0.5600
     18 O2          2.3584    2.4046   -0.5473 O.3       1 <0>        -0.6800
     19 Br1        -1.9623   -3.7594   -2.7392 Br        1 <0>        -0.1110
     20 H1          2.9840   -3.8328   -3.5679 H         1 <0>         0.1500
     21 H2          0.7284   -4.8227   -3.4038 H         1 <0>         0.1500
     22 H3         -0.9465   -0.9768   -2.3288 H         1 <0>         0.1500
     23 H4          2.0378   -0.1311   -0.0370 H         1 <0>         0.0000
     24 H5          0.2633   -0.1415    0.0014 H         1 <0>         0.0000
     25 H6         -0.9881    2.2064   -0.4089 H         1 <0>         0.0000
     26 H7          0.0305    3.6305   -0.6962 H         1 <0>         0.0000
     27 H8          1.1110   -0.0863    2.2839 H         1 <0>         0.0000
     28 H9          2.1076    1.3355    1.9619 H         1 <0>         0.0000
     29 H10         0.9820    3.4540    1.5886 H         1 <0>         0.0000
     30 H11        -0.7824    3.4777    1.6605 H         1 <0>         0.0000
     31 H12         1.2267    2.1975   -2.7836 H         1 <0>         0.0000
     32 H13        -0.1413    1.1688   -2.3531 H         1 <0>         0.0000
     33 H14         4.0432    1.7094   -3.5850 H         1 <0>         0.4500
     34 H15         3.5443    2.0004   -2.0193 H         1 <0>         0.4500
     35 H16         4.8386    0.9891   -2.3031 H         1 <0>         0.4500
     36 H17         2.3005    3.1931   -1.1063 H         1 <0>         0.4000
@<TRIPOS>BOND
     1    1    2 ar
     2    1    4 ar
     3    2    6 ar
     4    3    5 ar
     5    3    6 ar
     6    4    5 ar
     7    4   14 1
     8    5   15 1
     9    6   19 1
    10    7   14 2
    11    7   15 1
    12    7   16 1
    13    8   10 1
    14    8   12 1
    15    9   11 1
    16    9   12 1
    17   10   17 1
    18   11   17 1
    19   12   13 1
    20   12   18 1
    21   13   15 1
    22    1   20 1
    23    2   21 1
    24    3   22 1
    25    8   23 1
    26    8   24 1
    27    9   25 1
    28    9   26 1
    29   10   27 1
    30   10   28 1
    31   11   29 1
    32   11   30 1
    33   13   31 1
    34   13   32 1
    35   16   33 1
    36   16   34 1
    37   16   35 1
    38   18   36 1
