@<TRIPOS>MOLECULE
*****
   47    50     0     0     0
SMALL
USER_CHARGES

@<TRIPOS>ATOM
      1 C1         -5.7058    1.9356    0.1406 C.ar      1 <0>        -0.1500
      2 C2         -4.9200    2.9066    0.7973 C.ar      1 <0>        -0.1500
      3 C3         -6.2419    0.8333    0.8216 C.ar      1 <0>        -0.1090
      4 C4         -4.6318    2.8226    2.1671 C.ar      1 <0>        -0.1090
      5 C5         -4.5761   -2.5415   -0.9579 C.ar      1 <0>         0.1600
      6 C6         -2.3785   -1.7592   -1.0795 C.ar      1 <0>         0.1600
      7 C7         -4.4973   -3.3065    2.5877 C.ar      1 <0>         0.1600
      8 C8         -3.2882   -2.5954   -0.4651 C.ar      1 <0>        -0.1435
      9 C9         -3.2751   -3.0053    2.0222 C.ar      1 <0>        -0.1435
     10 C10        -5.9479    0.7639    2.1783 C.ar      1 <0>         0.3090
     11 C11        -5.1701    1.7249    2.8283 C.ar      1 <0>         0.3090
     12 C12        -2.4441   -2.2101    2.7848 C.ar      1 <0>         0.3925
     13 C13        -5.7795    0.1935    4.3208 C.cat     1 <0>         0.6560
     14 C14        -3.9790   -0.9695   -2.4873 C.ar      1 <0>         0.7025
     15 C15        -3.9896   -2.1033    4.4482 C.ar      1 <0>         0.7215
     16 C16        -4.3815    2.0338    5.1972 C.3       1 <0>         0.5140
     17 C17        -5.6902   -0.1794   -3.9376 C.3       1 <0>         0.2800
     18 C18        -2.8979   -3.5137    0.6790 C.3       1 <0>         0.2870
     19 C19        -5.9451   -0.5587    5.5899 C.3       1 <0>         0.3740
     20 N1         -4.9578   -1.7372   -1.9716 N.ar      1 <0>        -0.6200
     21 N2         -2.6906   -0.9303   -2.0973 N.ar      1 <0>        -0.6200
     22 N3         -4.8886   -2.8708    3.8031 N.ar      1 <0>        -0.6200
     23 N4         -2.7706   -1.7396    4.0064 N.ar      1 <0>        -0.6200
     24 N5         -6.2999   -0.1597    3.1411 N.pl3     1 <0>        -0.7000
     25 N6         -5.0948    1.3289    4.1479 N.pl3     1 <0>        -0.7640
     26 O1         -1.2097   -1.8588    2.3051 O.3       1 <0>        -0.5325
     27 O2         -4.3320   -0.1376   -3.5243 O.3       1 <0>        -0.3625
     28 S1         -4.4594   -1.5100    6.0431 S.3       1 <0>        -0.3315
     29 H1         -5.9003    2.0466   -0.9239 H         1 <0>         0.1500
     30 H2         -4.5273    3.7432    0.2237 H         1 <0>         0.1500
     31 H3         -6.8459    0.0817    0.3301 H         1 <0>         0.1500
     32 H4         -4.0302    3.5631    2.6784 H         1 <0>         0.1500
     33 H5         -5.3658   -3.1593   -0.5421 H         1 <0>         0.1500
     34 H6         -1.3397   -1.7273   -0.7657 H         1 <0>         0.1500
     35 H7         -5.2231   -3.9250    2.0691 H         1 <0>         0.1500
     36 H8         -5.0602    2.7518    5.6657 H         1 <0>         0.0000
     37 H9         -4.0188    1.3299    5.9516 H         1 <0>         0.0000
     38 H10        -3.5240    2.5613    4.7698 H         1 <0>         0.0000
     39 H11        -5.8427    0.5214   -4.7621 H         1 <0>         0.0000
     40 H12        -6.3362    0.0848   -3.0966 H         1 <0>         0.0000
     41 H13        -5.9285   -1.1913   -4.2737 H         1 <0>         0.0000
     42 H14        -3.3419   -4.5108    0.4969 H         1 <0>         0.0000
     43 H15        -1.8093   -3.7040    0.6221 H         1 <0>         0.0000
     44 H16        -6.1848    0.1183    6.4263 H         1 <0>         0.0000
     45 H17        -6.7916   -1.2621    5.5256 H         1 <0>         0.0000
     46 H18        -6.8700   -0.9853    2.9776 H         1 <0>         0.4500
     47 H19        -0.7527   -1.3041    2.9527 H         1 <0>         0.4500
@<TRIPOS>BOND
     1    1    2 ar
     2    1    3 ar
     3    2    4 ar
     4    3   10 ar
     5    4   11 ar
     6    5    8 ar
     7    5   20 ar
     8    6    8 ar
     9    6   21 ar
    10    7    9 ar
    11    7   22 ar
    12    8   18 1
    13    9   12 ar
    14    9   18 1
    15   10   11 ar
    16   10   24 1
    17   11   25 1
    18   12   23 ar
    19   12   26 1
    20   13   19 1
    21   13   24 1
    22   13   25 2
    23   14   20 ar
    24   14   21 ar
    25   14   27 1
    26   15   22 ar
    27   15   23 ar
    28   15   28 1
    29   16   25 1
    30   17   27 1
    31   19   28 1
    32    1   29 1
    33    2   30 1
    34    3   31 1
    35    4   32 1
    36    5   33 1
    37    6   34 1
    38    7   35 1
    39   16   36 1
    40   16   37 1
    41   16   38 1
    42   17   39 1
    43   17   40 1
    44   17   41 1
    45   18   42 1
    46   18   43 1
    47   19   44 1
    48   19   45 1
    49   24   46 1
    50   26   47 1
