@<TRIPOS>MOLECULE
*****
   27    28     0     0     0
SMALL
USER_CHARGES

@<TRIPOS>ATOM
      1 C1          4.0471   -9.3475   -1.5663 C.1       1 <0>         0.4841
      2 C2          4.3422   -6.9408   -1.6390 C.ar      1 <0>        -0.1500
      3 C3          4.0482   -5.6569   -1.1801 C.ar      1 <0>        -0.1500
      4 C4          2.5017   -6.5854    0.4272 C.ar      1 <0>        -0.1500
      5 C5          3.7159   -8.0471   -1.0649 C.ar      1 <0>         0.0730
      6 C6          3.1280   -5.4792   -0.1470 C.ar      1 <0>         0.1790
      7 C7          2.7956   -7.8694   -0.0318 C.ar      1 <0>         0.1770
      8 C8          0.2681   -2.0049   -0.8966 C.2       1 <0>         0.1144
      9 C9         -0.0807   -2.9572   -1.7824 C.2       1 <0>        -0.0372
     10 C10         1.8605   -3.5839   -0.2742 C.2       1 <0>         0.6410
     11 C11        -0.3716   -0.7009   -0.7598 C.2       1 <0>         0.7056
     12 C12        -1.1503   -2.9658   -2.8188 C.3       1 <0>         0.1382
     13 N1          4.3155  -10.4010   -1.9725 N.1       1 <0>        -0.5571
     14 N2          2.8332   -4.1839    0.3166 N.2       1 <0>        -0.6290
     15 N3          1.3221   -2.3372   -0.0733 N.pl3     1 <0>        -0.5500
     16 O1         -1.3094   -0.3110   -1.4379 O.2       1 <0>        -0.5700
     17 O2          0.2290    0.0036    0.2249 O.3       1 <0>        -0.6500
     18 S1          0.9646   -4.3786   -1.5962 S.3       1 <0>        -0.2420
     19 Cl1         1.9935   -9.2058    0.7184 Cl        1 <0>        -0.1770
     20 H1          5.0617   -7.0602   -2.4460 H         1 <0>         0.1500
     21 H2          4.5407   -4.8006   -1.6332 H         1 <0>         0.1500
     22 H3          1.7873   -6.4379    1.2343 H         1 <0>         0.1500
     23 H4         -0.7612   -2.5748   -3.7603 H         1 <0>         0.0000
     24 H5         -1.9894   -2.3471   -2.4955 H         1 <0>         0.0000
     25 H6         -1.5090   -3.9845   -2.9769 H         1 <0>         0.0000
     26 H7          1.6522   -1.6812    0.6233 H         1 <0>         0.4000
     27 H8         -0.1750    0.8891    0.3467 H         1 <0>         0.5000
@<TRIPOS>BOND
     1    1    5 1
     2    1   13 3
     3    2    3 ar
     4    2    5 ar
     5    3    6 ar
     6    4    6 ar
     7    4    7 ar
     8    5    7 ar
     9    6   14 1
    10    7   19 1
    11    8    9 2
    12    8   11 1
    13    8   15 1
    14    9   12 1
    15    9   18 1
    16   10   14 2
    17   10   15 1
    18   10   18 1
    19   11   16 2
    20   11   17 1
    21    2   20 1
    22    3   21 1
    23    4   22 1
    24   12   23 1
    25   12   24 1
    26   12   25 1
    27   15   26 1
    28   17   27 1
