@<TRIPOS>MOLECULE
*****
   41    42     0     0     0
SMALL
USER_CHARGES

@<TRIPOS>ATOM
      1 C1         -3.2647   -2.4234   -0.0431 C.ar      1 <0>        -0.1500
      2 C2         -4.6061   -0.5835    0.7644 C.ar      1 <0>        -0.1500
      3 C3         -3.5445   -1.0575   -0.0064 C.ar      1 <0>        -0.1435
      4 C4         -4.0465   -3.3155    0.6909 C.ar      1 <0>        -0.1435
      5 C5         -5.3879   -1.4755    1.4984 C.ar      1 <0>        -0.1435
      6 C6         -5.1081   -2.8415    1.4617 C.ar      1 <0>        -0.1710
      7 C7         -4.1697    1.4548   -2.1429 C.2       1 <0>        -0.3500
      8 C8         -3.3765    0.3709   -2.0457 C.2       1 <0>        -0.1238
      9 C9         -3.1824   -0.3964   -3.3028 C.2       1 <0>         0.7646
     10 C10        -4.6479    1.2260   -4.4550 C.2       1 <0>        -0.1410
     11 C11        -3.6959   -4.7709    0.6109 C.3       1 <0>         0.1435
     12 C12        -6.5829    0.6430    2.1538 C.3       1 <0>         0.0000
     13 C13        -6.3333   -1.2269    3.8203 C.3       1 <0>         0.0000
     14 C14        -7.9350   -1.4315    1.9297 C.3       1 <0>         0.0000
     15 C15        -2.7008   -0.0946   -0.7986 C.3       1 <0>         0.2817
     16 C16        -6.5140   -0.9053    2.3071 C.3       1 <0>         0.1435
     17 N1         -4.8331    1.9793   -3.2003 N.2       1 <0>        -0.5700
     18 N2         -5.3255    1.7147   -5.6541 N.2       1 <0>        -0.9200
     19 N3         -2.4577   -1.4591   -3.4025 N.2       1 <0>        -0.8500
     20 N4         -3.9403    0.1882   -4.5492 N.pl3     1 <0>        -0.0480
     21 O1         -5.8280   -3.6630    2.1377 O.3       1 <0>        -0.8290
     22 H1         -2.4363   -2.7906   -0.6446 H         1 <0>         0.1500
     23 H2         -4.8222    0.4821    0.7915 H         1 <0>         0.1500
     24 H3         -4.2874    1.9908   -1.1993 H         1 <0>         0.1500
     25 H4         -2.9767   -5.0262    1.3950 H         1 <0>         0.0000
     26 H5         -4.5876   -5.3948    0.7313 H         1 <0>         0.0000
     27 H6         -3.2593   -5.0145   -0.3634 H         1 <0>         0.0000
     28 H7         -7.3994    1.0859    2.7361 H         1 <0>         0.0000
     29 H8         -5.6560    1.1231    2.4862 H         1 <0>         0.0000
     30 H9         -6.7363    0.9161    1.1030 H         1 <0>         0.0000
     31 H10        -7.1514   -0.8145    4.4209 H         1 <0>         0.0000
     32 H11        -6.3022   -2.3046    4.0188 H         1 <0>         0.0000
     33 H12        -5.3990   -0.7917    4.1941 H         1 <0>         0.0000
     34 H13        -8.7236   -0.9859    2.5480 H         1 <0>         0.0000
     35 H14        -8.1749   -1.1988    0.8856 H         1 <0>         0.0000
     36 H15        -7.9985   -2.5180    2.0610 H         1 <0>         0.0000
     37 H16        -2.4525    0.7725   -0.1754 H         1 <0>         0.0000
     38 H17        -1.7438   -0.5600   -1.0605 H         1 <0>         0.0000
     39 H18        -6.2233    1.9175   -5.2956 H         1 <0>         0.1500
     40 H19        -2.4863   -1.7979   -4.3693 H         1 <0>         0.4000
     41 H20        -3.8396   -0.3041   -5.4379 H         1 <0>         0.4000
@<TRIPOS>BOND
     1    1    3 ar
     2    1    4 ar
     3    2    3 ar
     4    2    5 ar
     5    3   15 1
     6    4    6 ar
     7    4   11 1
     8    5    6 ar
     9    5   16 1
    10    6   21 1
    11    7    8 2
    12    7   17 1
    13    8    9 1
    14    8   15 1
    15    9   19 2
    16    9   20 1
    17   10   17 1
    18   10   18 1
    19   10   20 2
    20   12   16 1
    21   13   16 1
    22   14   16 1
    23    1   22 1
    24    2   23 1
    25    7   24 1
    26   11   25 1
    27   11   26 1
    28   11   27 1
    29   12   28 1
    30   12   29 1
    31   12   30 1
    32   13   31 1
    33   13   32 1
    34   13   33 1
    35   14   34 1
    36   14   35 1
    37   14   36 1
    38   15   37 1
    39   15   38 1
    40   18   39 1
    41   19   40 1
    42   20   41 1
