@<TRIPOS>MOLECULE
*****
   35    36     0     0     0
SMALL
USER_CHARGES

@<TRIPOS>ATOM
      1 C1          5.9352   -3.4165   -2.0504 C.ar      1 <0>        -0.1500
      2 C2          5.4943   -3.7455   -3.3506 C.ar      1 <0>        -0.1500
      3 C3          5.2727   -3.8959   -0.9161 C.ar      1 <0>        -0.1500
      4 C4          4.3783   -4.5633   -3.5537 C.ar      1 <0>        -0.1500
      5 C5          4.1760   -4.6990   -1.1237 C.ar      1 <0>         0.1000
      6 C6          3.7319   -5.0305   -2.4336 C.ar      1 <0>         0.1000
      7 C7          2.3659   -6.0240   -0.9468 C.2       1 <0>         0.2000
      8 C8          1.3687   -6.7512   -0.4248 C.2       1 <0>        -0.0410
      9 C9         -0.5755   -8.1753   -0.6851 C.2       1 <0>         0.7800
     10 C10        -3.3817   -8.6743   -0.5142 C.3       1 <0>         0.0000
     11 C11        -3.0844  -10.0117   -2.6196 C.3       1 <0>         0.0000
     12 C12        -1.8979  -10.7073   -0.5180 C.3       1 <0>         0.0000
     13 C13        -2.4145   -9.5249   -1.3364 C.3       1 <0>         0.2800
     14 N1          3.3188   -5.3230   -0.2105 N.pl3     1 <0>        -0.6000
     15 N2          2.6074   -5.8539   -2.3086 N.pl3     1 <0>        -0.6000
     16 N3          0.4657   -7.4158   -1.1899 N.am      1 <0>        -0.5390
     17 O1         -0.8245   -8.3521    0.5034 O.2       1 <0>        -0.5700
     18 O2         -1.2992   -8.7100   -1.7143 O.3       1 <0>        -0.4300
     19 H1          6.8073   -2.7781   -1.9315 H         1 <0>         0.1500
     20 H2          6.0349   -3.3542   -4.2091 H         1 <0>         0.1500
     21 H3          5.6155   -3.6406    0.0796 H         1 <0>         0.1500
     22 H4          4.0442   -4.8128   -4.5537 H         1 <0>         0.1500
     23 H5          1.2385   -6.8425    0.6437 H         1 <0>         0.1500
     24 H6         -2.9046   -8.3230    0.4077 H         1 <0>         0.0000
     25 H7         -3.7324   -7.8037   -1.0779 H         1 <0>         0.0000
     26 H8         -4.2542   -9.2617   -0.2063 H         1 <0>         0.0000
     27 H9         -2.3941  -10.6224   -3.2126 H         1 <0>         0.0000
     28 H10        -3.3720   -9.1660   -3.2547 H         1 <0>         0.0000
     29 H11        -3.9790  -10.6062   -2.4079 H         1 <0>         0.0000
     30 H12        -1.2042  -11.3176   -1.1076 H         1 <0>         0.0000
     31 H13        -1.3816  -10.3755    0.3885 H         1 <0>         0.0000
     32 H14        -2.7216  -11.3694   -0.2271 H         1 <0>         0.0000
     33 H15         3.3610   -5.2873    0.7932 H         1 <0>         0.4000
     34 H16         2.0590   -6.2588   -3.0469 H         1 <0>         0.4000
     35 H17         0.5606   -7.3514   -2.2018 H         1 <0>         0.3700
@<TRIPOS>BOND
     1    1    2 ar
     2    1    3 ar
     3    2    4 ar
     4    3    5 ar
     5    4    6 ar
     6    5    6 ar
     7    5   14 1
     8    6   15 1
     9    7    8 2
    10    7   14 1
    11    7   15 1
    12    8   16 1
    13    9   16 am
    14    9   17 2
    15    9   18 1
    16   10   13 1
    17   11   13 1
    18   12   13 1
    19   13   18 1
    20    1   19 1
    21    2   20 1
    22    3   21 1
    23    4   22 1
    24    8   23 1
    25   10   24 1
    26   10   25 1
    27   10   26 1
    28   11   27 1
    29   11   28 1
    30   11   29 1
    31   12   30 1
    32   12   31 1
    33   12   32 1
    34   14   33 1
    35   15   34 1
    36   16   35 1
