@<TRIPOS>MOLECULE
*****
   35    36     0     0     0
SMALL
USER_CHARGES

@<TRIPOS>ATOM
      1 C1         -4.4564   -4.2098    2.2990 C.ar      1 <0>        -0.1500
      2 C2         -3.3300   -4.2160    3.1502 C.ar      1 <0>        -0.1500
      3 C3         -4.4085   -4.7891    1.0271 C.ar      1 <0>        -0.1500
      4 C4         -2.1236   -4.8016    2.7538 C.ar      1 <0>        -0.1500
      5 C5         -3.2188   -5.3626    0.6443 C.ar      1 <0>         0.1000
      6 C6         -2.0842   -5.3689    1.5018 C.ar      1 <0>         0.1000
      7 C7         -1.5314   -6.4070   -0.4166 C.2       1 <0>         0.2000
      8 C8         -0.8282   -7.0600   -1.3518 C.2       1 <0>         0.0210
      9 C9          0.8791   -8.4949   -1.8018 C.2       1 <0>         0.7500
     10 C10         0.0372  -10.7384   -0.6929 C.3       1 <0>         0.0000
     11 C11        -1.4432  -11.0956   -2.6903 C.3       1 <0>         0.0000
     12 C12         1.0326  -11.4702   -2.8856 C.3       1 <0>         0.0000
     13 C13        -0.0640  -10.6444   -2.2146 C.3       1 <0>         0.2800
     14 N1          0.4709   -7.4297   -1.1891 N.2       1 <0>        -0.6210
     15 N2         -2.8613   -6.0108   -0.5432 N.pl3     1 <0>        -0.6000
     16 N3         -1.0439   -6.0208    0.8303 N.pl3     1 <0>        -0.6000
     17 O1          2.1348   -9.0047   -1.7512 O.3       1 <0>        -0.6000
     18 O2          0.0979   -9.2727   -2.5987 O.3       1 <0>        -0.4300
     19 H1         -5.3777   -3.7452    2.6415 H         1 <0>         0.1500
     20 H2         -3.4048   -3.7559    4.1325 H         1 <0>         0.1500
     21 H3         -5.2760   -4.7819    0.3779 H         1 <0>         0.1500
     22 H4         -1.2623   -4.8038    3.4110 H         1 <0>         0.1500
     23 H5         -1.2955   -7.3175   -2.2939 H         1 <0>         0.1500
     24 H6          1.0258  -10.4154   -0.3474 H         1 <0>         0.0000
     25 H7         -0.7219  -10.1229   -0.1993 H         1 <0>         0.0000
     26 H8         -0.0846  -11.7743   -0.3561 H         1 <0>         0.0000
     27 H9         -1.5203  -11.0298   -3.7816 H         1 <0>         0.0000
     28 H10        -2.2275  -10.4458   -2.2857 H         1 <0>         0.0000
     29 H11        -1.6573  -12.1262   -2.3892 H         1 <0>         0.0000
     30 H12         0.9602  -11.4029   -3.9772 H         1 <0>         0.0000
     31 H13         2.0307  -11.1360   -2.5843 H         1 <0>         0.0000
     32 H14         0.9301  -12.5320   -2.6338 H         1 <0>         0.0000
     33 H15        -3.4374   -6.1725   -1.3510 H         1 <0>         0.4000
     34 H16        -0.1110   -6.1907    1.1630 H         1 <0>         0.4000
     35 H17         2.7153   -8.4659   -1.1860 H         1 <0>         0.4500
@<TRIPOS>BOND
     1    1    2 ar
     2    1    3 ar
     3    2    4 ar
     4    3    5 ar
     5    4    6 ar
     6    5    6 ar
     7    5   15 1
     8    6   16 1
     9    7    8 2
    10    7   15 1
    11    7   16 1
    12    8   14 1
    13    9   14 2
    14    9   17 1
    15    9   18 1
    16   10   13 1
    17   11   13 1
    18   12   13 1
    19   13   18 1
    20    1   19 1
    21    2   20 1
    22    3   21 1
    23    4   22 1
    24    8   23 1
    25   10   24 1
    26   10   25 1
    27   10   26 1
    28   11   27 1
    29   11   28 1
    30   11   29 1
    31   12   30 1
    32   12   31 1
    33   12   32 1
    34   15   33 1
    35   16   34 1
    36   17   35 1
