@<TRIPOS>MOLECULE
*****
   26    28     0     0     0
SMALL
USER_CHARGES

@<TRIPOS>ATOM
      1 C1          3.8043    3.7977   -2.9015 C.ar      1 <0>        -0.1500
      2 C2          2.5283    4.2242   -2.5337 C.ar      1 <0>        -0.1500
      3 C3          4.2125    2.4942   -2.6188 C.ar      1 <0>        -0.1500
      4 C4          1.6604    3.3473   -1.8830 C.ar      1 <0>        -0.1500
      5 C5          3.3447    1.6173   -1.9681 C.ar      1 <0>        -0.1500
      6 C6          2.0686    2.0438   -1.6002 C.ar      1 <0>         0.0862
      7 C7         -0.4076    0.8782    0.9085 C.2       1 <0>        -0.2882
      8 C8          1.1600    1.1258   -0.9190 C.2       1 <0>         0.3494
      9 C9          0.6770    1.5205    0.4484 C.2       1 <0>         0.1544
     10 C10        -0.0134   -0.7851   -0.7914 C.2       1 <0>         0.6000
     11 C11        -1.5349   -1.4069    0.8030 C.2       1 <0>         0.4390
     12 C12        -1.0843   -0.1586    0.0825 C.3       1 <0>         0.2602
     13 N1          0.8297    0.0122   -1.5095 N.2       1 <0>        -0.6610
     14 N2          0.0641   -2.0821   -0.7346 N.2       1 <0>        -0.4920
     15 N3         -2.4076   -1.4018    1.7486 N.2       1 <0>        -0.8500
     16 N4         -0.8528   -2.4441    0.2136 N.pl3     1 <0>        -0.4080
     17 Cl1         1.4584    2.7613    1.3340 Cl        1 <0>        -0.1400
     18 H1          4.4800    4.4805   -3.4081 H         1 <0>         0.1500
     19 H2          2.2107    5.2393   -2.7537 H         1 <0>         0.1500
     20 H3          5.2060    2.1620   -2.9055 H         1 <0>         0.1500
     21 H4          0.6682    3.6901   -1.6008 H         1 <0>         0.1500
     22 H5          3.6735    0.6038   -1.7528 H         1 <0>         0.1500
     23 H6         -0.8342    1.1347    1.8739 H         1 <0>         0.1500
     24 H7         -1.9012    0.2491   -0.5190 H         1 <0>         0.0000
     25 H8         -2.5527   -2.3605    2.0840 H         1 <0>         0.4000
     26 H9         -0.9620   -3.4163    0.4780 H         1 <0>         0.4000
@<TRIPOS>BOND
     1    1    2 ar
     2    1    3 ar
     3    2    4 ar
     4    3    5 ar
     5    4    6 ar
     6    5    6 ar
     7    6    8 1
     8    7    9 2
     9    7   12 1
    10    8    9 1
    11    8   13 2
    12    9   17 1
    13   10   12 1
    14   10   13 1
    15   10   14 2
    16   11   12 1
    17   11   15 2
    18   11   16 1
    19   14   16 1
    20    1   18 1
    21    2   19 1
    22    3   20 1
    23    4   21 1
    24    5   22 1
    25    7   23 1
    26   12   24 1
    27   15   25 1
    28   16   26 1
