@<TRIPOS>MOLECULE
*****
   36    38     0     0     0
SMALL
USER_CHARGES

@<TRIPOS>ATOM
      1 C1          7.2639   -0.2244    4.9978 C.ar      1 <0>        -0.1500
      2 C2          6.3509    0.1484    5.9779 C.ar      1 <0>        -0.1500
      3 C3          6.8021   -0.6735    3.7645 C.ar      1 <0>        -0.1500
      4 C4          4.9785    0.0719    5.7229 C.ar      1 <0>        -0.1500
      5 C5          6.3221   -2.3075   -0.9799 C.ar      1 <0>        -0.1500
      6 C6          6.2010   -3.2350   -2.0146 C.ar      1 <0>        -0.1500
      7 C7          4.8579   -3.6502    0.3950 C.ar      1 <0>        -0.1500
      8 C8          5.4204   -0.7476    3.5159 C.ar      1 <0>         0.0000
      9 C9          4.4885   -0.3736    4.4977 C.ar      1 <0>         0.3100
     10 C10         5.6505   -2.5152    0.2250 C.ar      1 <0>         0.1000
     11 C11         5.4083   -4.3701   -1.8446 C.ar      1 <0>         0.0825
     12 C12         4.7367   -4.5777   -0.6397 C.ar      1 <0>         0.0825
     13 C13         4.8931   -1.1872    2.3050 C.ar      1 <0>         0.4100
     14 C14         2.7799   -0.8831    3.0565 C.ar      1 <0>         0.7970
     15 C15         6.0163   -4.9817   -4.0609 C.3       1 <0>         0.2800
     16 C16         3.3070   -5.8190    0.7994 C.3       1 <0>         0.2800
     17 N1          3.1649   -0.4403    4.2706 N.ar      1 <0>        -0.6200
     18 N2          3.5746   -1.2666    2.0443 N.ar      1 <0>        -0.6200
     19 N3          5.7727   -1.5815    1.2662 N.pl3     1 <0>        -0.6000
     20 O1          5.2978   -5.2684   -2.8627 O.3       1 <0>        -0.3625
     21 O2          3.9591   -5.6820   -0.4616 O.3       1 <0>        -0.3625
     22 Cl1         1.0959   -0.9647    2.7767 Cl        1 <0>        -0.1770
     23 H1          8.3302   -0.1657    5.1938 H         1 <0>         0.1500
     24 H2          6.7031    0.5000    6.9434 H         1 <0>         0.1500
     25 H3          7.5352   -0.9593    3.0147 H         1 <0>         0.1500
     26 H4          4.2847    0.3698    6.5069 H         1 <0>         0.1500
     27 H5          6.9428   -1.4268   -1.1232 H         1 <0>         0.1500
     28 H6          6.7267   -3.0676   -2.9507 H         1 <0>         0.1500
     29 H7          4.3323   -3.8155    1.3329 H         1 <0>         0.1500
     30 H8          5.8418   -5.7763   -4.7904 H         1 <0>         0.0000
     31 H9          7.0834   -4.9055   -3.8375 H         1 <0>         0.0000
     32 H10         5.6627   -4.0317   -4.4687 H         1 <0>         0.0000
     33 H11         2.7203   -6.7408    0.8088 H         1 <0>         0.0000
     34 H12         2.6555   -4.9580    0.9691 H         1 <0>         0.0000
     35 H13         4.0625   -5.8625    1.5874 H         1 <0>         0.0000
     36 H14         6.6585   -1.0902    1.2840 H         1 <0>         0.4000
@<TRIPOS>BOND
     1    1    2 ar
     2    1    3 ar
     3    2    4 ar
     4    3    8 ar
     5    4    9 ar
     6    5    6 ar
     7    5   10 ar
     8    6   11 ar
     9    7   10 ar
    10    7   12 ar
    11    8    9 ar
    12    8   13 ar
    13    9   17 ar
    14   10   19 1
    15   11   12 ar
    16   11   20 1
    17   12   21 1
    18   13   18 ar
    19   13   19 1
    20   14   17 ar
    21   14   18 ar
    22   14   22 1
    23   15   20 1
    24   16   21 1
    25    1   23 1
    26    2   24 1
    27    3   25 1
    28    4   26 1
    29    5   27 1
    30    6   28 1
    31    7   29 1
    32   15   30 1
    33   15   31 1
    34   15   32 1
    35   16   33 1
    36   16   34 1
    37   16   35 1
    38   19   36 1
