@<TRIPOS>MOLECULE
*****
   40    41     0     0     0
SMALL
USER_CHARGES

@<TRIPOS>ATOM
      1 C1          0.7486    3.8937    1.0981 C.ar      1 <0>        -0.1500
      2 C2         -1.6309    4.0339    0.7042 C.ar      1 <0>        -0.1500
      3 C3         -0.3794    3.5170    0.3692 C.ar      1 <0>        -0.1435
      4 C4          0.6251    4.7871    2.1622 C.ar      1 <0>         0.0825
      5 C5         -1.7544    4.9274    1.7682 C.ar      1 <0>         0.0825
      6 C6         -0.6264    5.3040    2.4972 C.ar      1 <0>         0.0825
      7 C7         -0.7050    1.1751   -0.4288 C.2       1 <0>        -0.1238
      8 C8         -1.8591    0.5898   -0.8162 C.2       1 <0>         0.1767
      9 C9          0.1783    0.3070    0.4455 C.2       1 <0>         0.4856
     10 C10        -1.4706   -1.5435    0.3360 C.2       1 <0>         0.5500
     11 C11         2.9750    4.5727    2.4586 C.3       1 <0>         0.2800
     12 C12        -4.0832    4.9890    1.2897 C.3       1 <0>         0.2800
     13 C13        -2.9796    0.6395   -2.8458 C.3       1 <0>         0.2800
     14 C14        -0.2463    2.5533   -0.7791 C.3       1 <0>         0.2817
     15 N1          1.3154    0.7724    0.8756 N.2       1 <0>        -0.8500
     16 N2         -1.8453   -2.7481    0.6558 N.2       1 <0>        -0.8500
     17 N3         -2.2246   -0.6958   -0.4565 N.pl3     1 <0>        -0.5500
     18 N4         -0.2786   -0.9702    0.7501 N.pl3     1 <0>        -0.5000
     19 O1         -0.7471    6.1773    3.5372 O.3       1 <0>        -0.5325
     20 O2          1.7347    5.1468    2.8661 O.3       1 <0>        -0.3625
     21 O3         -2.9825    5.4251    2.0849 O.3       1 <0>        -0.3625
     22 O4         -2.7456    1.2837   -1.6181 O.3       1 <0>        -0.3567
     23 H1          1.7253    3.4922    0.8389 H         1 <0>         0.1500
     24 H2         -2.5118    3.7420    0.1375 H         1 <0>         0.1500
     25 H3          3.7773    4.9425    3.1018 H         1 <0>         0.0000
     26 H4          3.1761    4.8387    1.4178 H         1 <0>         0.0000
     27 H5          2.9103    3.4858    2.5488 H         1 <0>         0.0000
     28 H6         -5.0017    5.4603    1.6478 H         1 <0>         0.0000
     29 H7         -4.1707    3.9014    1.3522 H         1 <0>         0.0000
     30 H8         -3.9083    5.2794    0.2510 H         1 <0>         0.0000
     31 H9         -3.6845    1.2279   -3.4383 H         1 <0>         0.0000
     32 H10        -3.3853   -0.3587   -2.6630 H         1 <0>         0.0000
     33 H11        -2.0349    0.5531   -3.3877 H         1 <0>         0.0000
     34 H12        -0.8247    2.9201   -1.6346 H         1 <0>         0.0000
     35 H13         0.7951    2.5093   -1.1162 H         1 <0>         0.0000
     36 H14         1.7678    0.0545    1.4435 H         1 <0>         0.4000
     37 H15        -1.1237   -3.1693    1.2430 H         1 <0>         0.4000
     38 H16        -3.1166   -1.0205   -0.8150 H         1 <0>         0.4000
     39 H17         0.3241   -1.5427    1.3359 H         1 <0>         0.4000
     40 H18        -1.6733    6.4442    3.6436 H         1 <0>         0.4500
@<TRIPOS>BOND
     1    1    3 ar
     2    1    4 ar
     3    2    3 ar
     4    2    5 ar
     5    3   14 1
     6    4    6 ar
     7    4   20 1
     8    5    6 ar
     9    5   21 1
    10    6   19 1
    11    7    8 2
    12    7    9 1
    13    7   14 1
    14    8   17 1
    15    8   22 1
    16    9   15 2
    17    9   18 1
    18   10   16 2
    19   10   17 1
    20   10   18 1
    21   11   20 1
    22   12   21 1
    23   13   22 1
    24    1   23 1
    25    2   24 1
    26   11   25 1
    27   11   26 1
    28   11   27 1
    29   12   28 1
    30   12   29 1
    31   12   30 1
    32   13   31 1
    33   13   32 1
    34   13   33 1
    35   14   34 1
    36   14   35 1
    37   15   36 1
    38   16   37 1
    39   17   38 1
    40   18   39 1
    41   19   40 1
