@<TRIPOS>MOLECULE
*****
   26    28     0     0     0
SMALL
USER_CHARGES

@<TRIPOS>ATOM
      1 C1          2.7458    3.5411   -3.2989 C.ar      1 <0>        -0.1500
      2 C2          1.7822    4.3512   -2.6983 C.ar      1 <0>        -0.1500
      3 C3          2.7105    2.1593   -3.1116 C.ar      1 <0>        -0.1500
      4 C4          0.7833    3.7796   -1.9102 C.ar      1 <0>        -0.1500
      5 C5          1.7116    1.5877   -2.3235 C.ar      1 <0>        -0.1500
      6 C6          0.7479    2.3978   -1.7229 C.ar      1 <0>        -0.1435
      7 C7          0.5301    0.5418    1.1204 C.2       1 <0>        -0.2882
      8 C8          0.1008    1.6893    0.5758 C.2       1 <0>         0.0018
      9 C9         -0.3202   -0.5776   -0.8544 C.2       1 <0>         0.6000
     10 C10         0.2395   -1.9661    0.7830 C.2       1 <0>         0.6000
     11 C11        -0.3233    1.7839   -0.8774 C.3       1 <0>         0.5277
     12 C12         0.6758   -0.6477    0.2521 C.3       1 <0>         0.2602
     13 N1         -0.7551    0.4788   -1.4442 N.2       1 <0>        -0.6960
     14 N2         -0.8157   -1.8346   -1.1101 N.2       1 <0>        -0.2110
     15 N3         -0.5500   -2.6091   -0.1426 N.2       1 <0>        -0.2110
     16 N4          0.5730   -2.4744    1.9172 N.2       1 <0>        -0.8500
     17 Cl1        -0.0490    3.1208    1.5289 Cl        1 <0>        -0.1400
     18 H1          3.5228    3.9863   -3.9135 H         1 <0>         0.1500
     19 H2          1.8089    5.4271   -2.8449 H         1 <0>         0.1500
     20 H3          3.4599    1.5282   -3.5799 H         1 <0>         0.1500
     21 H4          0.0367    4.4186   -1.4460 H         1 <0>         0.1500
     22 H5          1.6920    0.5101   -2.1831 H         1 <0>         0.1500
     23 H6          0.8301    0.4853    2.1617 H         1 <0>         0.1500
     24 H7         -1.2000    2.4396   -0.9394 H         1 <0>         0.0000
     25 H8          1.6913   -0.7381   -0.1452 H         1 <0>         0.0000
     26 H9          0.1273   -3.3922    2.0238 H         1 <0>         0.4000
@<TRIPOS>BOND
     1    1    2 ar
     2    1    3 ar
     3    2    4 ar
     4    3    5 ar
     5    4    6 ar
     6    5    6 ar
     7    6   11 1
     8    7    8 2
     9    7   12 1
    10    8   11 1
    11    8   17 1
    12    9   12 1
    13    9   13 2
    14    9   14 1
    15   10   12 1
    16   10   15 1
    17   10   16 2
    18   11   13 1
    19   14   15 2
    20    1   18 1
    21    2   19 1
    22    3   20 1
    23    4   21 1
    24    5   22 1
    25    7   23 1
    26   11   24 1
    27   12   25 1
    28   16   26 1
