@<TRIPOS>MOLECULE
*****
   30    31     0     0     0
SMALL
USER_CHARGES

@<TRIPOS>ATOM
      1 C1          1.5110   -4.6801    0.4486 C.ar      1 <0>        -0.1500
      2 C2          0.3719   -5.4067    0.1023 C.ar      1 <0>        -0.1500
      3 C3          1.6980   -3.3935   -0.0567 C.ar      1 <0>        -0.1500
      4 C4         -0.3933   -3.5601   -1.2549 C.ar      1 <0>        -0.1500
      5 C5         -0.5803   -4.8467   -0.7495 C.ar      1 <0>        -0.1435
      6 C6          0.7459   -2.8335   -0.9085 C.ar      1 <0>         0.1790
      7 C7         -0.5654    1.6882    0.7521 C.2       1 <0>        -0.1500
      8 C8          0.1360    1.8558   -0.4961 C.2       1 <0>        -0.1500
      9 C9         -0.7687    0.4729    1.2766 C.2       1 <0>        -0.1500
     10 C10         0.6189    0.8203   -1.1947 C.2       1 <0>        -0.1356
     11 C11        -0.2903   -0.7210    0.6071 C.2       1 <0>         0.0144
     12 C12         0.4459   -0.5795   -0.6982 C.2       1 <0>         0.4212
     13 C13        -0.5037   -1.9326    1.1426 C.2       1 <0>         0.1534
     14 C14        -1.7985   -5.6234   -1.1199 C.3       1 <0>         1.1635
     15 N1          0.9342   -1.5393   -1.4172 N.2       1 <0>        -0.6290
     16 O1         -0.0469   -3.0606    0.5018 O.3       1 <0>        -0.5267
     17 O2         -1.1790   -2.0510    2.3348 O.3       1 <0>        -0.5267
     18 F1         -1.8496   -6.8651   -0.5529 F         1 <0>        -0.3400
     19 F2         -2.9661   -5.0165   -0.7537 F         1 <0>        -0.3400
     20 F3         -1.9000   -5.8309   -2.4651 F         1 <0>        -0.3400
     21 H1          2.2521   -5.1160    1.1122 H         1 <0>         0.1500
     22 H2          0.2340   -6.4084    0.5014 H         1 <0>         0.1500
     23 H3          2.5888   -2.8350    0.2187 H         1 <0>         0.1500
     24 H4         -1.1363   -3.1232   -1.9185 H         1 <0>         0.1500
     25 H5         -0.9264    2.5783    1.2555 H         1 <0>         0.1500
     26 H6          0.2665    2.8690   -0.8619 H         1 <0>         0.1500
     27 H7         -1.3025    0.3758    2.2171 H         1 <0>         0.1500
     28 H8          1.1434    0.9706   -2.1318 H         1 <0>         0.1500
     29 H9         -0.3045   -3.8191    1.0527 H         1 <0>         0.4500
     30 H10        -1.2223   -3.0005    2.5388 H         1 <0>         0.4500
@<TRIPOS>BOND
     1    1    2 ar
     2    1    3 ar
     3    2    5 ar
     4    3    6 ar
     5    4    5 ar
     6    4    6 ar
     7    5   14 1
     8    6   15 1
     9    7    8 1
    10    7    9 2
    11    8   10 2
    12    9   11 1
    13   10   12 1
    14   11   12 1
    15   11   13 2
    16   12   15 2
    17   13   16 1
    18   13   17 1
    19   14   18 1
    20   14   19 1
    21   14   20 1
    22    1   21 1
    23    2   22 1
    24    3   23 1
    25    4   24 1
    26    7   25 1
    27    8   26 1
    28    9   27 1
    29   10   28 1
    30   16   29 1
    31   17   30 1
