@<TRIPOS>MOLECULE
*****
   26    26     0     0     0
SMALL
USER_CHARGES

@<TRIPOS>ATOM
      1 C1          1.8851   -1.0363   -0.1124 C.ar      1 <0>        -0.1500
      2 C2          2.8783   -1.6520    2.0022 C.ar      1 <0>        -0.1500
      3 C3          0.8066   -0.4630    0.5610 C.ar      1 <0>        -0.1500
      4 C4          1.7997   -1.0786    2.6757 C.ar      1 <0>        -0.1500
      5 C5          2.9210   -1.6309    0.6081 C.ar      1 <0>        -0.1435
      6 C6          0.7638   -0.4841    1.9551 C.ar      1 <0>        -0.0090
      7 C7          3.8552   -3.7074   -0.4350 C.2       1 <0>        -0.2882
      8 C8          4.5831   -4.7591    0.0052 C.2       1 <0>        -0.0733
      9 C9         -1.7603   -1.0894    2.9632 C.3       1 <0>         0.1052
     10 C10         4.0740   -2.2446   -0.1116 C.3       1 <0>         0.2817
     11 O1          4.4045   -5.9817   -0.2619 O.3       1 <0>        -0.8500
     12 O2         -0.1350    0.6029    4.1333 O.2       1 <0>        -0.6500
     13 O3         -1.1966    1.2405    1.9396 O.2       1 <0>        -0.6500
     14 O4          5.6313   -4.3327    0.8447 O.3       1 <0>        -0.5267
     15 S1         -0.5850    0.2354    2.7982 S.o2      1 <0>         1.2038
     16 H1          1.9097   -1.0154   -1.1987 H         1 <0>         0.1500
     17 H2          3.6806   -2.1133    2.5719 H         1 <0>         0.1500
     18 H3          0.0045   -0.0029   -0.0100 H         1 <0>         0.1500
     19 H4          1.7763   -1.1011    3.7620 H         1 <0>         0.1500
     20 H5          3.0141   -3.9018   -1.1017 H         1 <0>         0.1500
     21 H6         -2.6382   -0.7077    3.4867 H         1 <0>         0.0000
     22 H7         -2.0311   -1.4358    1.9647 H         1 <0>         0.0000
     23 H8         -1.2943   -1.8939    3.5340 H         1 <0>         0.0000
     24 H9          4.2590   -1.7146   -1.0619 H         1 <0>         0.0000
     25 H10         5.0003   -2.0966    0.4680 H         1 <0>         0.0000
     26 H11         6.0949   -5.1465    1.1099 H         1 <0>         0.4500
@<TRIPOS>BOND
     1    1    3 ar
     2    1    5 ar
     3    2    4 ar
     4    2    5 ar
     5    3    6 ar
     6    4    6 ar
     7    5   10 1
     8    6   15 1
     9    7    8 2
    10    7   10 1
    11    8   11 1
    12    8   14 1
    13    9   15 1
    14   12   15 2
    15   13   15 2
    16    1   16 1
    17    2   17 1
    18    3   18 1
    19    4   19 1
    20    7   20 1
    21    9   21 1
    22    9   22 1
    23    9   23 1
    24   10   24 1
    25   10   25 1
    26   14   26 1
