@<TRIPOS>MOLECULE
*****
   18    19     0     0     0
SMALL
USER_CHARGES

@<TRIPOS>ATOM
      1 C1          0.4132   -0.8496    0.5371 C.ar      1 <0>        -0.1500
      2 C2         -0.3220   -2.0324    0.6323 C.ar      1 <0>        -0.1500
      3 C3          2.2393   -1.8196    1.8257 C.ar      1 <0>        -0.1500
      4 C4          1.5125   -2.9953    1.9225 C.ar      1 <0>         0.1000
      5 C5          1.6824   -0.7439    1.1282 C.ar      1 <0>         0.0825
      6 C6          0.2373   -3.0938    1.3252 C.ar      1 <0>         0.1015
      7 C7          0.9785   -5.1670    2.5053 C.2       1 <0>         0.2010
      8 C8          1.0880   -6.3914    3.0370 C.2       1 <0>        -0.3000
      9 N1          1.9166   -4.1596    2.5791 N.pl3     1 <0>        -0.6000
     10 O1          2.3788    0.4227    1.0207 O.3       1 <0>        -0.5325
     11 S1         -0.4905   -4.7161    1.5965 S.3       1 <0>        -0.2025
     12 H1         -0.0052   -0.0033   -0.0023 H         1 <0>         0.1500
     13 H2         -1.3017   -2.1072    0.1725 H         1 <0>         0.1500
     14 H3          3.2211   -1.7333    2.2812 H         1 <0>         0.1500
     15 H4          0.2909   -7.1133    2.9220 H         1 <0>         0.1500
     16 H5          1.9747   -6.6738    3.5880 H         1 <0>         0.1500
     17 H6          2.7952   -4.2668    3.0604 H         1 <0>         0.4000
     18 H7          1.8675    1.0719    0.5131 H         1 <0>         0.4500
@<TRIPOS>BOND
     1    1    2 ar
     2    1    5 ar
     3    2    6 ar
     4    3    4 ar
     5    3    5 ar
     6    4    6 ar
     7    4    9 1
     8    5   10 1
     9    6   11 1
    10    7    8 2
    11    7    9 1
    12    7   11 1
    13    1   12 1
    14    2   13 1
    15    3   14 1
    16    8   15 1
    17    8   16 1
    18    9   17 1
    19   10   18 1
