@<TRIPOS>MOLECULE
*****
   36    37     0     0     0
SMALL
USER_CHARGES

@<TRIPOS>ATOM
      1 C1          0.1911   -9.8685    1.0069 C.ar      1 <0>        -0.1500
      2 C2          1.5569  -10.1619    0.8218 C.ar      1 <0>        -0.1500
      3 C3         -0.3143   -8.5910    0.7378 C.ar      1 <0>        -0.1500
      4 C4          2.4418   -9.1846    0.3646 C.ar      1 <0>        -0.1500
      5 C5          0.5679   -7.6285    0.2856 C.ar      1 <0>         0.1790
      6 C6          1.9091   -7.9398    0.1104 C.ar      1 <0>         0.3640
      7 C7          1.4542   -5.7957   -0.4181 C.2       1 <0>         0.7850
      8 C8          2.1271   -2.3548    0.1545 C.2       1 <0>         0.7500
      9 C9          4.4616   -1.7571   -0.9187 C.3       1 <0>         0.0000
     10 C10         3.2525   -1.0714   -3.0109 C.3       1 <0>         0.0000
     11 C11         3.1804    0.4083   -0.9827 C.3       1 <0>         0.0000
     12 C12         1.6549   -4.3909   -0.8665 C.3       1 <0>         0.3070
     13 C13         3.2402   -1.0338   -1.4842 C.3       1 <0>         0.2800
     14 N1          0.3047   -6.2913   -0.0488 N.2       1 <0>        -0.6290
     15 N2          1.9485   -3.6183    0.3326 N.2       1 <0>        -0.6960
     16 N3          2.5855   -6.7570   -0.3649 N.4       1 <0>        -0.6600
     17 O1          2.4089   -1.4673    1.1384 O.3       1 <0>        -0.6000
     18 O2          2.0603   -1.7192   -1.0448 O.3       1 <0>        -0.4300
     19 H1         -0.4788  -10.6462    1.3645 H         1 <0>         0.1500
     20 H2          1.9232  -11.1618    1.0390 H         1 <0>         0.1500
     21 H3         -1.3664   -8.3719    0.8822 H         1 <0>         0.1500
     22 H4          3.4929   -9.4016    0.2189 H         1 <0>         0.1500
     23 H5          4.4565   -1.7324    0.1769 H         1 <0>         0.0000
     24 H6          4.4973   -2.8023   -1.2428 H         1 <0>         0.0000
     25 H7          5.3886   -1.2650   -1.2347 H         1 <0>         0.0000
     26 H8          2.3779   -0.5535   -3.4209 H         1 <0>         0.0000
     27 H9          3.1996   -2.1033   -3.3763 H         1 <0>         0.0000
     28 H10         4.1547   -0.6047   -3.4193 H         1 <0>         0.0000
     29 H11         2.3044    0.9274   -1.3882 H         1 <0>         0.0000
     30 H12         3.1338    0.4536    0.1102 H         1 <0>         0.0000
     31 H13         4.0574    0.9740   -1.3175 H         1 <0>         0.0000
     32 H14         0.7408   -4.0270   -1.3391 H         1 <0>         0.0000
     33 H15         2.4883   -4.3479   -1.5706 H         1 <0>         0.0000
     34 H16         3.3034   -6.4441    0.2991 H         1 <0>         0.4500
     35 H17         2.9863   -6.9041   -1.2986 H         1 <0>         0.4500
     36 H18         2.4611   -1.9028    2.0070 H         1 <0>         0.4500
@<TRIPOS>BOND
     1    1    2 ar
     2    1    3 ar
     3    2    4 ar
     4    3    5 ar
     5    4    6 ar
     6    5    6 ar
     7    5   14 1
     8    6   16 1
     9    7   12 1
    10    7   14 2
    11    7   16 1
    12    8   15 2
    13    8   17 1
    14    8   18 1
    15    9   13 1
    16   10   13 1
    17   11   13 1
    18   12   15 1
    19   13   18 1
    20    1   19 1
    21    2   20 1
    22    3   21 1
    23    4   22 1
    24    9   23 1
    25    9   24 1
    26    9   25 1
    27   10   26 1
    28   10   27 1
    29   10   28 1
    30   11   29 1
    31   11   30 1
    32   11   31 1
    33   12   32 1
    34   12   33 1
    35   16   34 1
    36   16   35 1
    37   17   36 1
