@<TRIPOS>MOLECULE
*****
   26    28     0     0     0
SMALL
USER_CHARGES

@<TRIPOS>ATOM
      1 C1         -1.0403    4.8415   -3.7439 C.ar      1 <0>        -0.1500
      2 C2         -2.1001    3.9868   -3.4407 C.ar      1 <0>        -0.1500
      3 C3          0.2231    4.6056   -3.2017 C.ar      1 <0>        -0.1500
      4 C4         -1.8965    2.8962   -2.5951 C.ar      1 <0>        -0.1500
      5 C5          0.4266    3.5151   -2.3561 C.ar      1 <0>        -0.1500
      6 C6         -0.6332    2.6604   -2.0528 C.ar      1 <0>         0.0862
      7 C7         -1.3139   -0.2023    0.4611 C.2       1 <0>        -0.2882
      8 C8         -0.4196    1.5158   -1.1653 C.2       1 <0>         0.3028
      9 C9         -0.1031   -0.7400    0.4191 C.2       1 <0>         0.0288
     10 C10         0.9526   -0.1584   -0.3722 C.2       1 <0>         0.6466
     11 C11         0.5397   -1.8963    1.0422 C.2       1 <0>         0.4856
     12 C12        -1.6090    1.0419   -0.3108 C.3       1 <0>         0.4892
     13 N1          0.7488    0.9399   -1.1444 N.2       1 <0>        -0.6610
     14 N2          2.0623   -0.8294   -0.2549 N.2       1 <0>        -0.4500
     15 N3          1.7993   -1.9398    0.6498 N.2       1 <0>        -0.4500
     16 N4         -0.0707   -2.7748    1.8902 N.pl3     1 <0>        -0.8500
     17 Cl1        -1.9977    2.3511    0.8379 Cl        1 <0>        -0.2900
     18 H1         -1.1988    5.6906   -4.4022 H         1 <0>         0.1500
     19 H2         -3.0837    4.1707   -3.8628 H         1 <0>         0.1500
     20 H3          1.0483    5.2709   -3.4380 H         1 <0>         0.1500
     21 H4         -2.7294    2.2365   -2.3655 H         1 <0>         0.1500
     22 H5          1.4153    3.3411   -1.9393 H         1 <0>         0.1500
     23 H6         -2.0996   -0.6531    1.0589 H         1 <0>         0.1500
     24 H7         -2.4761    0.8895   -0.9615 H         1 <0>         0.0000
     25 H8         -1.0311   -2.6319    2.1137 H         1 <0>         0.4000
     26 H9          0.4635   -3.5308    2.2587 H         1 <0>         0.4000
@<TRIPOS>BOND
     1    1    2 ar
     2    1    3 ar
     3    2    4 ar
     4    3    5 ar
     5    4    6 ar
     6    5    6 ar
     7    6    8 1
     8    7    9 2
     9    7   12 1
    10    8   12 1
    11    8   13 2
    12    9   10 1
    13    9   11 1
    14   10   13 1
    15   10   14 2
    16   11   15 2
    17   11   16 1
    18   12   17 1
    19   14   15 1
    20    1   18 1
    21    2   19 1
    22    3   20 1
    23    4   21 1
    24    5   22 1
    25    7   23 1
    26   12   24 1
    27   16   25 1
    28   16   26 1
