@<TRIPOS>MOLECULE
*****
   27    29     0     0     0
SMALL
USER_CHARGES

@<TRIPOS>ATOM
      1 C1          1.4863   -2.5090    5.4907 C.ar      1 <0>        -0.1500
      2 C2          2.2040   -2.8921    4.3577 C.ar      1 <0>        -0.1500
      3 C3          0.4361   -1.5981    5.3761 C.ar      1 <0>        -0.1500
      4 C4          1.8715   -2.3643    3.1101 C.ar      1 <0>        -0.1500
      5 C5          0.1036   -1.0703    4.1285 C.ar      1 <0>        -0.1500
      6 C6          0.8213   -1.4534    2.9955 C.ar      1 <0>         0.0862
      7 C7          0.4730   -0.9004    1.6881 C.2       1 <0>         0.3028
      8 C8          0.1444    0.0837   -0.8337 C.2       1 <0>        -0.1238
      9 C9          0.1931    0.8529    0.2491 C.2       1 <0>         0.3420
     10 C10        -0.1702    1.0710   -1.8409 C.cat     1 <0>         0.5966
     11 C11         0.3211   -1.3731   -0.8341 C.3       1 <0>         0.1382
     12 C12         0.0464   -1.8933    0.5836 C.3       1 <0>         0.3510
     13 N1          0.4863    0.3936    1.5024 N.2       1 <0>        -0.6210
     14 N2         -0.0318    2.1751   -0.0199 N.2       1 <0>        -0.1710
     15 N3         -0.2511    2.3144   -1.2552 N.2       1 <0>        -0.2110
     16 N4         -0.3484    0.8488   -3.0865 N.pl3     1 <0>        -0.2000
     17 Cl1        -1.7114   -2.1626    0.8249 Cl        1 <0>        -0.2900
     18 H1          1.7452   -2.9199    6.4621 H         1 <0>         0.1500
     19 H2          3.0218   -3.6011    4.4471 H         1 <0>         0.1500
     20 H3         -0.1229   -1.3000    6.2583 H         1 <0>         0.1500
     21 H4          2.4373   -2.6698    2.2336 H         1 <0>         0.1500
     22 H5         -0.7166   -0.3612    4.0511 H         1 <0>         0.1500
     23 H6         -0.3274   -1.8615   -1.5692 H         1 <0>         0.0000
     24 H7          1.3573   -1.5994   -1.1126 H         1 <0>         0.0000
     25 H8          0.5362   -2.8602    0.7363 H         1 <0>         0.0000
     26 H9         -0.2789   -0.0986   -3.4944 H         1 <0>         0.4000
     27 H10        -0.5719    1.6039   -3.7563 H         1 <0>         0.4000
@<TRIPOS>BOND
     1    1    2 ar
     2    1    3 ar
     3    2    4 ar
     4    3    5 ar
     5    4    6 ar
     6    5    6 ar
     7    6    7 1
     8    7   12 1
     9    7   13 2
    10    8    9 2
    11    8   10 1
    12    8   11 1
    13    9   13 1
    14    9   14 1
    15   10   15 1
    16   10   16 2
    17   11   12 1
    18   12   17 1
    19   14   15 2
    20    1   18 1
    21    2   19 1
    22    3   20 1
    23    4   21 1
    24    5   22 1
    25   11   23 1
    26   11   24 1
    27   12   25 1
    28   16   26 1
    29   16   27 1
