@<TRIPOS>MOLECULE
*****
   26    27     0     0     0
SMALL
USER_CHARGES

@<TRIPOS>ATOM
      1 C1          0.4101    2.1450   -1.3327 C.1       1 <0>         0.1530
      2 C2          0.3920   -5.1610    0.6838 C.2       1 <0>        -0.0058
      3 C3         -0.5159   -5.7548    1.5354 C.2       1 <0>        -0.1400
      4 C4         -0.3158   -3.3612    1.7180 C.2       1 <0>         0.6221
      5 C5         -0.1458    1.3874    0.8405 C.2       1 <0>        -0.1500
      6 C6         -0.3575    0.3839    1.7022 C.2       1 <0>        -0.1356
      7 C7          0.1506   -1.2784   -0.1799 C.2       1 <0>        -0.1356
      8 C8          0.2162    1.1259   -0.5422 C.2       1 <0>         0.0650
      9 C9          0.3546   -0.2466   -1.0146 C.2       1 <0>         0.1400
     10 C10        -0.2201   -1.0211    1.2385 C.2       1 <0>         0.3712
     11 C11         1.2297   -5.9579   -0.3232 C.2       1 <0>         1.0330
     12 C12        -0.8892   -7.1751    1.6929 C.3       1 <0>         0.1800
     13 N1          0.5964    3.1243   -2.0926 N.1       1 <0>        -0.2180
     14 N2          0.5078   -3.7885    0.7867 N.2       1 <0>        -0.5653
     15 N3         -0.4183   -1.9974    2.0489 N.pl3     1 <0>        -0.0440
     16 O1          2.0213   -5.2921   -1.0418 O.co2     1 <0>        -0.9000
     17 O2          1.0481   -7.2042   -0.3383 O.co2     1 <0>        -0.9000
     18 S1         -1.2592   -4.5556    2.5106 S.3       1 <0>        -0.0800
     19 Cl1         0.7851   -0.5699   -2.6620 Cl        1 <0>        -0.1400
     20 H1         -0.2451    2.4154    1.1766 H         1 <0>         0.1500
     21 H2         -0.6276    0.5793    2.7342 H         1 <0>         0.1500
     22 H3          0.2477   -2.3095   -0.5058 H         1 <0>         0.1500
     23 H4         -0.2511   -7.6720    2.4414 H         1 <0>         0.0000
     24 H5         -1.9378   -7.2933    2.0138 H         1 <0>         0.0000
     25 H6         -0.7945   -7.7341    0.7466 H         1 <0>         0.0000
     26 H7         -0.6707   -1.7842    3.0156 H         1 <0>         0.4000
@<TRIPOS>BOND
     1    1    8 2
     2    1   13 2
     3    2    3 2
     4    2   11 1
     5    2   14 1
     6    3   12 1
     7    3   18 1
     8    4   14 2
     9    4   15 1
    10    4   18 1
    11    5    6 2
    12    5    8 1
    13    6   10 1
    14    7    9 2
    15    7   10 1
    16    8    9 1
    17    9   19 1
    18   10   15 2
    19   11   16 1
    20   11   17 2
    21    5   20 1
    22    6   21 1
    23    7   22 1
    24   12   23 1
    25   12   24 1
    26   12   25 1
    27   15   26 1
