@<TRIPOS>MOLECULE
*****
   39    40     0     0     0
SMALL
USER_CHARGES

@<TRIPOS>ATOM
      1 C1          1.4354   -3.5505    0.8691 C.ar      1 <0>        -0.1500
      2 C2          0.6363   -3.1951    3.1211 C.ar      1 <0>        -0.1500
      3 C3          0.4887   -3.0198    1.7452 C.ar      1 <0>        -0.1435
      4 C4          2.5297   -4.2567    1.3688 C.ar      1 <0>         0.0825
      5 C5          1.7305   -3.9012    3.6209 C.ar      1 <0>         0.0825
      6 C6          2.6772   -4.4320    2.7447 C.ar      1 <0>         0.0825
      7 C7         -1.5176   -3.0716    0.2623 C.2       1 <0>        -0.1238
      8 C8         -1.5483   -2.9507   -1.0773 C.2       1 <0>        -0.1233
      9 C9         -2.4230   -4.1418    0.7605 C.cat     1 <0>         0.5966
     10 C10        -3.0383   -4.5775   -1.4325 C.2       1 <0>         0.0100
     11 C11         3.2217   -4.5457   -0.8880 C.3       1 <0>         0.2800
     12 C12         0.8512   -3.4912    5.7922 C.3       1 <0>         0.2800
     13 C13        -1.4072   -0.7553   -1.8106 C.3       1 <0>         0.2800
     14 C14        -0.6914   -2.2578    1.2064 C.3       1 <0>         0.2817
     15 N1         -2.2640   -3.6459   -1.9865 N.2       1 <0>        -0.5800
     16 N2         -3.1504   -4.8492   -0.1679 N.2       1 <0>        -0.6610
     17 N3         -3.7509   -5.2749   -2.3070 N.2       1 <0>        -0.9300
     18 N4         -2.5505   -4.4273    2.0052 N.pl3     1 <0>        -0.2000
     19 O1          3.7468   -5.1222    3.2331 O.3       1 <0>        -0.5325
     20 O2          3.4471   -4.7700    0.5023 O.3       1 <0>        -0.3625
     21 O3          1.8629   -4.0652    4.9669 O.3       1 <0>        -0.3625
     22 O4         -0.7506   -1.9900   -1.6784 O.3       1 <0>        -0.3567
     23 H1          1.3227   -3.4151   -0.2040 H         1 <0>         0.1500
     24 H2         -0.1003   -2.7824    3.8063 H         1 <0>         0.1500
     25 H3          4.0257   -5.0066   -1.4672 H         1 <0>         0.0000
     26 H4          3.1871   -3.4710   -1.0838 H         1 <0>         0.0000
     27 H5          2.2675   -4.9965   -1.1707 H         1 <0>         0.0000
     28 H6          1.0773   -3.6948    6.8417 H         1 <0>         0.0000
     29 H7         -0.1203   -3.9167    5.5284 H         1 <0>         0.0000
     30 H8          0.8301   -2.4110    5.6293 H         1 <0>         0.0000
     31 H9         -0.7381   -0.0353   -2.2882 H         1 <0>         0.0000
     32 H10        -1.7054   -0.3926   -0.8237 H         1 <0>         0.0000
     33 H11        -2.2963   -0.8901   -2.4311 H         1 <0>         0.0000
     34 H12        -1.3211   -1.9201    2.0367 H         1 <0>         0.0000
     35 H13        -0.3542   -1.3504    0.6945 H         1 <0>         0.0000
     36 H14        -3.1091   -5.7343   -2.9568 H         1 <0>         0.1500
     37 H15        -2.0270   -3.9258    2.7380 H         1 <0>         0.4000
     38 H16        -3.1827   -5.1723    2.3337 H         1 <0>         0.4000
     39 H17         4.3099   -5.4252    2.5042 H         1 <0>         0.4500
@<TRIPOS>BOND
     1    1    3 ar
     2    1    4 ar
     3    2    3 ar
     4    2    5 ar
     5    3   14 1
     6    4    6 ar
     7    4   20 1
     8    5    6 ar
     9    5   21 1
    10    6   19 1
    11    7    8 2
    12    7    9 1
    13    7   14 1
    14    8   15 1
    15    8   22 1
    16    9   16 1
    17    9   18 2
    18   10   15 1
    19   10   16 2
    20   10   17 1
    21   11   20 1
    22   12   21 1
    23   13   22 1
    24    1   23 1
    25    2   24 1
    26   11   25 1
    27   11   26 1
    28   11   27 1
    29   12   28 1
    30   12   29 1
    31   12   30 1
    32   13   31 1
    33   13   32 1
    34   13   33 1
    35   14   34 1
    36   14   35 1
    37   17   36 1
    38   18   37 1
    39   18   38 1
    40   19   39 1
