@<TRIPOS>MOLECULE
*****
   48    51     0     0     0
SMALL
USER_CHARGES

@<TRIPOS>ATOM
      1 C1         -7.1987   -2.3755   12.3688 C.ar      1 <0>        -0.1500
      2 C2         -5.9561   -1.8215   12.7439 C.ar      1 <0>        -0.1500
      3 C3         -7.4354   -2.8508   11.0710 C.ar      1 <0>        -0.1090
      4 C4         -4.8897   -1.7156   11.8395 C.ar      1 <0>        -0.1090
      5 C5        -10.5141   -0.6911    9.5864 C.ar      1 <0>         0.1600
      6 C6         -9.8175    1.4133   10.3231 C.ar      1 <0>         0.1600
      7 C7         -9.9937    0.5458    9.2645 C.ar      1 <0>        -0.1435
      8 C8         -6.3693   -2.7392   10.1862 C.ar      1 <0>         0.3090
      9 C9         -5.1395   -2.1908   10.5575 C.ar      1 <0>         0.3090
     10 C10        -5.0190   -2.7931    8.4205 C.cat     1 <0>         0.6560
     11 C11       -10.6223   -0.1289   11.7863 C.ar      1 <0>         0.7025
     12 C12        -8.2747   -0.8850    6.7917 C.2       1 <0>         0.1910
     13 C13        -8.3566    0.3096    7.3960 C.2       1 <0>        -0.1238
     14 C14        -7.1051    1.0755    7.6334 C.2       1 <0>         0.9366
     15 C15        -5.9458   -0.7841    6.5746 C.cat     1 <0>         0.8398
     16 C16        -2.9670   -1.7822    9.3566 C.3       1 <0>         0.5140
     17 C17       -11.4745   -1.7771   13.2740 C.3       1 <0>         0.2800
     18 C18        -9.6403    0.9237    7.8512 C.3       1 <0>         0.2817
     19 C19        -4.5188   -3.0313    7.0432 C.3       1 <0>         0.3740
     20 N1        -10.8408   -1.0632   10.8414 N.ar      1 <0>        -0.6200
     21 N2        -10.1224    1.1078   11.6014 N.ar      1 <0>        -0.6200
     22 N3         -6.2451   -3.0959    8.8591 N.pl3     1 <0>        -0.7000
     23 N4         -4.3402   -2.2460    9.4342 N.pl3     1 <0>        -0.7640
     24 N5         -7.0848   -1.4386    6.3793 N.pl3     1 <0>        -0.6454
     25 N6         -5.9228    0.4081    7.1655 N.am      1 <0>        -0.6854
     26 O1         -7.0335    2.1686    8.1695 O.2       1 <0>        -0.5700
     27 O2        -10.9455   -0.4736   13.0781 O.3       1 <0>        -0.3625
     28 S1         -4.4594   -1.5100    6.0431 S.3       1 <0>        -0.3610
     29 H1         -7.9944   -2.4349   13.1081 H         1 <0>         0.1500
     30 H2         -5.8232   -1.4669   13.7636 H         1 <0>         0.1500
     31 H3         -8.3834   -3.2777   10.7703 H         1 <0>         0.1500
     32 H4         -3.9336   -1.2921   12.1192 H         1 <0>         0.1500
     33 H5        -10.6896   -1.4450    8.8256 H         1 <0>         0.1500
     34 H6         -9.4148    2.4105   10.1747 H         1 <0>         0.1500
     35 H7         -9.1572   -1.4837    6.5955 H         1 <0>         0.1500
     36 H8         -2.2993   -2.6070    9.6205 H         1 <0>         0.0000
     37 H9         -2.7371   -1.4373    8.3445 H         1 <0>         0.0000
     38 H10        -2.8189   -0.9508   10.0517 H         1 <0>         0.0000
     39 H11       -11.6894   -1.9283   14.3347 H         1 <0>         0.0000
     40 H12       -10.7517   -2.5203   12.9281 H         1 <0>         0.0000
     41 H13       -12.3987   -1.8757   12.6997 H         1 <0>         0.0000
     42 H14       -10.4473    0.6160    7.1766 H         1 <0>         0.0000
     43 H15        -9.5691    2.0129    7.7583 H         1 <0>         0.0000
     44 H16        -3.5075   -3.4702    7.0565 H         1 <0>         0.0000
     45 H17        -5.1521   -3.7613    6.5127 H         1 <0>         0.0000
     46 H18        -6.9767   -3.5249    8.2987 H         1 <0>         0.4500
     47 H19        -7.0716   -2.3457    5.9262 H         1 <0>         0.4500
     48 H20        -5.0134    0.8454    7.2792 H         1 <0>         0.4500
@<TRIPOS>BOND
     1    1    2 ar
     2    1    3 ar
     3    2    4 ar
     4    3    8 ar
     5    4    9 ar
     6    5    7 ar
     7    5   20 ar
     8    6    7 ar
     9    6   21 ar
    10    7   18 1
    11    8    9 ar
    12    8   22 1
    13    9   23 1
    14   10   19 1
    15   10   22 1
    16   10   23 2
    17   11   20 ar
    18   11   21 ar
    19   11   27 1
    20   12   13 2
    21   12   24 1
    22   13   14 1
    23   13   18 1
    24   14   25 am
    25   14   26 2
    26   15   24 1
    27   15   25 2
    28   15   28 1
    29   16   23 1
    30   17   27 1
    31   19   28 1
    32    1   29 1
    33    2   30 1
    34    3   31 1
    35    4   32 1
    36    5   33 1
    37    6   34 1
    38   12   35 1
    39   16   36 1
    40   16   37 1
    41   16   38 1
    42   17   39 1
    43   17   40 1
    44   17   41 1
    45   18   42 1
    46   18   43 1
    47   19   44 1
    48   19   45 1
    49   22   46 1
    50   24   47 1
    51   25   48 1
