@<TRIPOS>MOLECULE
*****
   46    49     0     0     0
SMALL
USER_CHARGES

@<TRIPOS>ATOM
      1 C1         -4.5740    2.8399    0.7211 C.ar      1 <0>        -0.1500
      2 C2         -5.3305    1.8729    0.0252 C.ar      1 <0>        -0.1500
      3 C3         -4.3631    2.7589    2.1051 C.ar      1 <0>        -0.1090
      4 C4         -5.9131    0.7779    0.6792 C.ar      1 <0>        -0.1090
      5 C5         -4.2315   -2.6243   -0.9710 C.ar      1 <0>         0.1600
      6 C6         -2.0138   -1.8929   -1.0282 C.ar      1 <0>         0.1600
      7 C7         -4.3019   -3.3706    2.5517 C.ar      1 <0>         0.1600
      8 C8         -2.9619   -2.7020   -0.4358 C.ar      1 <0>        -0.1435
      9 C9         -3.0472   -3.0825    2.0547 C.ar      1 <0>        -0.1435
     10 C10        -4.9465    1.6683    2.7392 C.ar      1 <0>         0.3090
     11 C11        -5.6953    0.7112    2.0503 C.ar      1 <0>         0.3090
     12 C12        -2.2534   -2.2913    2.8597 C.ar      1 <0>         0.1390
     13 C13        -5.6497    0.1471    4.2006 C.cat     1 <0>         0.6560
     14 C14        -3.5492   -1.0821   -2.4952 C.ar      1 <0>         0.7025
     15 C15        -3.8888   -2.1639    4.4333 C.ar      1 <0>         0.7215
     16 C16        -4.2870    1.9790    5.1469 C.3       1 <0>         0.5140
     17 C17        -5.1939   -0.2688   -4.0083 C.3       1 <0>         0.2800
     18 C18        -2.6305   -3.6158    0.7278 C.3       1 <0>         0.2870
     19 C19        -5.8911   -0.5993    5.4610 C.3       1 <0>         0.3740
     20 N1         -4.5616   -1.8222   -2.0045 N.ar      1 <0>        -0.6200
     21 N2         -2.2737   -1.0678   -2.0636 N.ar      1 <0>        -0.6200
     22 N3         -4.7570   -2.9263    3.7416 N.ar      1 <0>        -0.6200
     23 N4         -2.6437   -1.8127    4.0592 N.ar      1 <0>        -0.6200
     24 N5         -4.9473    1.2763    4.0621 N.pl3     1 <0>        -0.7640
     25 N6         -6.1075   -0.2060    2.9950 N.pl3     1 <0>        -0.7000
     26 O1         -1.0686   -1.9479    2.5202 O.3       1 <0>        -0.8290
     27 O2         -3.8493   -0.2533   -3.5512 O.3       1 <0>        -0.3625
     28 S1         -4.4406   -1.5611    5.9981 S.3       1 <0>        -0.3315
     29 H1         -4.1428    3.6709    0.1673 H         1 <0>         0.1500
     30 H2         -5.4647    1.9813   -1.0488 H         1 <0>         0.1500
     31 H3         -3.7842    3.4961    2.6464 H         1 <0>         0.1500
     32 H4         -6.4954    0.0296    0.1573 H         1 <0>         0.1500
     33 H5         -5.0482   -3.2198   -0.5754 H         1 <0>         0.1500
     34 H6         -0.9854   -1.8811   -0.6809 H         1 <0>         0.1500
     35 H7         -5.0038   -3.9846    1.9964 H         1 <0>         0.1500
     36 H8         -4.9962    2.6991    5.5635 H         1 <0>         0.0000
     37 H9         -3.9781    1.2607    5.9114 H         1 <0>         0.0000
     38 H10        -3.4024    2.4923    4.7595 H         1 <0>         0.0000
     39 H11        -5.3034    0.4266   -4.8441 H         1 <0>         0.0000
     40 H12        -5.8607    0.0185   -3.1915 H         1 <0>         0.0000
     41 H13        -5.4441   -1.2786   -4.3423 H         1 <0>         0.0000
     42 H14        -3.0887   -4.6045    0.5449 H         1 <0>         0.0000
     43 H15        -1.5458   -3.8264    0.7169 H         1 <0>         0.0000
     44 H16        -6.1707    0.0827    6.2809 H         1 <0>         0.0000
     45 H17        -6.7386   -1.2959    5.3524 H         1 <0>         0.0000
     46 H18        -6.6744   -1.0276    2.8031 H         1 <0>         0.4500
@<TRIPOS>BOND
     1    1    2 ar
     2    1    3 ar
     3    2    4 ar
     4    3   10 ar
     5    4   11 ar
     6    5    8 ar
     7    5   20 ar
     8    6    8 ar
     9    6   21 ar
    10    7    9 ar
    11    7   22 ar
    12    8   18 1
    13    9   12 ar
    14    9   18 1
    15   10   11 ar
    16   10   24 1
    17   11   25 1
    18   12   23 ar
    19   12   26 1
    20   13   19 1
    21   13   24 1
    22   13   25 2
    23   14   20 ar
    24   14   21 ar
    25   14   27 1
    26   15   22 ar
    27   15   23 ar
    28   15   28 1
    29   16   24 1
    30   17   27 1
    31   19   28 1
    32    1   29 1
    33    2   30 1
    34    3   31 1
    35    4   32 1
    36    5   33 1
    37    6   34 1
    38    7   35 1
    39   16   36 1
    40   16   37 1
    41   16   38 1
    42   17   39 1
    43   17   40 1
    44   17   41 1
    45   18   42 1
    46   18   43 1
    47   19   44 1
    48   19   45 1
    49   25   46 1
