@<TRIPOS>MOLECULE
*****
   29    30     0     0     0
SMALL
USER_CHARGES

@<TRIPOS>ATOM
      1 C1          1.0679   -3.7124   -3.0017 C.ar      1 <0>        -0.1500
      2 C2          0.2562   -4.7381   -2.5173 C.ar      1 <0>        -0.1500
      3 C3          0.6937   -2.3812   -2.8182 C.ar      1 <0>        -0.1500
      4 C4         -1.3040   -3.1015   -1.6662 C.ar      1 <0>        -0.1500
      5 C5         -0.9297   -4.4327   -1.8496 C.ar      1 <0>        -0.1435
      6 C6         -0.4923   -2.0758   -2.1505 C.ar      1 <0>         0.1790
      7 C7         -0.8019    1.2375   -0.6161 C.2       1 <0>        -0.1356
      8 C8         -0.3864    1.8580    0.4927 C.2       1 <0>        -0.2882
      9 C9          0.7962   -0.2142    1.2449 C.2       1 <0>        -0.2882
     10 C10         0.3973   -0.8683    0.1460 C.2       1 <0>        -0.2356
     11 C11        -0.4415   -0.1806   -0.8777 C.2       1 <0>         0.4212
     12 C12         0.8509   -2.3082    0.0309 C.2       1 <0>         1.0500
     13 C13         0.4545    1.2124    1.5457 C.3       1 <0>         0.2764
     14 C14        -1.7978   -5.5293   -1.3315 C.3       1 <0>         1.1635
     15 N1         -0.8690   -0.7367   -1.9664 N.2       1 <0>        -0.6290
     16 O1          0.0662   -3.1590    0.5365 O.co2     1 <0>        -0.9000
     17 O2          1.9564   -2.4762   -0.5562 O.co2     1 <0>        -0.9000
     18 F1         -1.3083   -6.7797   -1.5820 F         1 <0>        -0.3400
     19 F2         -1.9860   -5.4850    0.0207 F         1 <0>        -0.3400
     20 F3         -3.0491   -5.5102   -1.8761 F         1 <0>        -0.3400
     21 H1          1.9916   -3.9503   -3.5212 H         1 <0>         0.1500
     22 H2          0.5561   -5.7726   -2.6642 H         1 <0>         0.1500
     23 H3          1.3325   -1.5887   -3.1993 H         1 <0>         0.1500
     24 H4         -2.2285   -2.8635   -1.1447 H         1 <0>         0.1500
     25 H5         -1.4117    1.7533   -1.3496 H         1 <0>         0.1500
     26 H6         -0.6685    2.8957    0.6493 H         1 <0>         0.1500
     27 H7          1.4078   -0.7178    1.9902 H         1 <0>         0.1500
     28 H8          1.3827    1.7834    1.6602 H         1 <0>         0.0000
     29 H9         -0.0788    1.2551    2.5022 H         1 <0>         0.0000
@<TRIPOS>BOND
     1    1    2 ar
     2    1    3 ar
     3    2    5 ar
     4    3    6 ar
     5    4    5 ar
     6    4    6 ar
     7    5   14 1
     8    6   15 1
     9    7    8 2
    10    7   11 1
    11    8   13 1
    12    9   10 2
    13    9   13 1
    14   10   11 1
    15   10   12 1
    16   11   15 2
    17   12   16 1
    18   12   17 2
    19   14   18 1
    20   14   19 1
    21   14   20 1
    22    1   21 1
    23    2   22 1
    24    3   23 1
    25    4   24 1
    26    7   25 1
    27    8   26 1
    28    9   27 1
    29   13   28 1
    30   13   29 1
