@<TRIPOS>MOLECULE
*****
   44    46     0     0     0
SMALL
USER_CHARGES

@<TRIPOS>ATOM
      1 C1          1.4943    0.0509   -6.8557 C.ar      1 <0>         0.2110
      2 C2          0.0518    1.8118   -5.2821 C.ar      1 <0>         0.1170
      3 C3          0.5426    0.6210   -4.7359 C.ar      1 <0>         0.0825
      4 C4          1.2689   -0.2666   -5.5268 C.ar      1 <0>         0.1900
      5 C5          0.3141    2.0715   -6.6278 C.ar      1 <0>         0.3894
      6 C6         -0.1610    3.2837   -7.2648 C.2       1 <0>        -0.1784
      7 C7         -0.8623    4.1700   -6.5552 C.2       1 <0>        -0.1356
      8 C8         -1.1757    3.9505   -5.1154 C.2       1 <0>         0.6156
      9 C9          0.8559   -1.4132   -1.1334 C.3       1 <0>         0.0000
     10 C10         1.9483    0.5976   -0.0519 C.3       1 <0>         0.0000
     11 C11         0.5173   -1.9719    0.2486 C.3       1 <0>         0.0000
     12 C12         1.6091    0.0383    1.3297 C.3       1 <0>         0.0000
     13 C13         0.9518    0.1193   -1.1178 C.3       1 <0>         0.0000
     14 C14         1.5185   -1.4848    1.2925 C.3       1 <0>         0.5030
     15 C15        -0.9810    2.5090   -3.1250 C.3       1 <0>         0.3001
     16 C16         1.3428    0.6484   -2.4965 C.3       1 <0>         0.2800
     17 N1          1.0176    1.1948   -7.3628 N.ar      1 <0>        -0.1790
     18 N2         -0.7009    2.7695   -4.5326 N.am      1 <0>        -0.4771
     19 N3          1.0950   -1.9746    2.6310 N.4       1 <0>        -0.8530
     20 O1         -1.8284    4.8195   -4.5353 O.2       1 <0>        -0.5700
     21 O2          0.3600    0.2397   -3.4292 O.3       1 <0>        -0.3625
     22 F1          1.7453   -1.4109   -5.0192 F         1 <0>        -0.1900
     23 H1          2.0471   -0.5779   -7.5398 H         1 <0>         0.1500
     24 H2          0.0613    3.4530   -8.3116 H         1 <0>         0.1500
     25 H3         -1.2276    5.0831   -7.0124 H         1 <0>         0.1500
     26 H4          1.8065   -1.8435   -1.4740 H         1 <0>         0.0000
     27 H5          0.0897   -1.7323   -1.8500 H         1 <0>         0.0000
     28 H6          1.9504    1.6933   -0.0068 H         1 <0>         0.0000
     29 H7          2.9651    0.2881   -0.3260 H         1 <0>         0.0000
     30 H8         -0.4991   -1.6585    0.5203 H         1 <0>         0.0000
     31 H9          0.5161   -3.0675    0.2055 H         1 <0>         0.0000
     32 H10         2.3763    0.3553    2.0460 H         1 <0>         0.0000
     33 H11         0.6561    0.4685    1.6639 H         1 <0>         0.0000
     34 H12        -0.0384    0.5246   -0.8700 H         1 <0>         0.0000
     35 H13         2.5066   -1.9215    1.1072 H         1 <0>         0.0000
     36 H14        -0.1731    2.9270   -2.5064 H         1 <0>         0.0000
     37 H15        -1.9357    2.9799   -2.8480 H         1 <0>         0.0000
     38 H16        -1.0456    1.4236   -2.9589 H         1 <0>         0.0000
     39 H17         2.3101    0.2411   -2.7885 H         1 <0>         0.0000
     40 H18         1.3912    1.7364   -2.4755 H         1 <0>         0.0000
     41 H19         1.2007    1.4000   -8.3452 H         1 <0>         0.4570
     42 H20         1.8895   -1.9997    3.2771 H         1 <0>         0.4500
     43 H21         0.7074   -2.9208    2.5653 H         1 <0>         0.4500
     44 H22         0.3773   -1.3631    3.0316 H         1 <0>         0.4500
@<TRIPOS>BOND
     1    1    4 ar
     2    1   17 ar
     3    2    3 ar
     4    2    5 ar
     5    2   18 1
     6    3    4 ar
     7    3   21 1
     8    4   22 1
     9    5    6 1
    10    5   17 ar
    11    6    7 2
    12    7    8 1
    13    8   18 am
    14    8   20 2
    15    9   11 1
    16    9   13 1
    17   10   12 1
    18   10   13 1
    19   11   14 1
    20   12   14 1
    21   13   16 1
    22   14   19 1
    23   15   18 1
    24   16   21 1
    25    1   23 1
    26    6   24 1
    27    7   25 1
    28    9   26 1
    29    9   27 1
    30   10   28 1
    31   10   29 1
    32   11   30 1
    33   11   31 1
    34   12   32 1
    35   12   33 1
    36   13   34 1
    37   14   35 1
    38   15   36 1
    39   15   37 1
    40   15   38 1
    41   16   39 1
    42   16   40 1
    43   17   41 1
    44   19   42 1
    45   19   43 1
    46   19   44 1
