@<TRIPOS>MOLECULE
*****
   45    48     0     0     0
SMALL
USER_CHARGES

@<TRIPOS>ATOM
      1 C1          9.1181   -0.8868    2.8859 C.ar      1 <0>        -0.1500
      2 C2          8.2179   -1.1929    1.8627 C.ar      1 <0>        -0.1500
      3 C3          8.8668   -1.2751    4.2079 C.ar      1 <0>        -0.1500
      4 C4          7.0368   -1.8962    2.1214 C.ar      1 <0>        -0.1500
      5 C5          8.8164    1.6460    8.6187 C.ar      1 <0>         0.1600
      6 C6          7.8442    3.2810    7.2630 C.ar      1 <0>         0.1600
      7 C7          7.6782    2.3365    8.2553 C.ar      1 <0>        -0.1435
      8 C8          7.6848   -1.9822    4.4859 C.ar      1 <0>         0.2272
      9 C9          6.8072   -2.2726    3.4451 C.ar      1 <0>        -0.1516
     10 C10         6.0648   -3.0483    5.3795 C.2       1 <0>         0.0065
     11 C11        10.0604    2.8004    7.1064 C.ar      1 <0>         0.7025
     12 C12         5.8681   -0.3819    8.9403 C.2       1 <0>         0.0210
     13 C13         5.6962    0.8267    8.3953 C.2       1 <0>        -0.1238
     14 C14         4.7919    0.9041    7.2058 C.2       1 <0>         0.3356
     15 C15         4.5084   -1.3478    7.4390 C.2       1 <0>         0.3710
     16 C16         4.6089   -3.4805    3.3815 C.3       1 <0>         0.2556
     17 C17        12.3734    2.2611    6.9851 C.3       1 <0>         0.2800
     18 C18         6.3425    2.0757    8.8984 C.3       1 <0>         0.2817
     19 C19         5.1596   -3.7254    6.3307 C.3       1 <0>         0.4100
     20 N1         10.0283    1.8532    8.0631 N.ar      1 <0>        -0.6200
     21 N2          9.0253    3.5401    6.6646 N.ar      1 <0>        -0.6200
     22 N3          7.2071   -2.4720    5.6798 N.2       1 <0>        -0.5653
     23 N4          4.2279   -0.2303    6.7762 N.2       1 <0>        -0.5600
     24 N5          5.2709   -1.5146    8.4713 N.2       1 <0>        -0.6210
     25 N6          5.7803   -2.9549    4.0455 N.pl3     1 <0>         0.0476
     26 O1          4.6105    2.0019    6.6807 O.2       1 <0>        -0.5700
     27 O2         11.2808    3.0394    6.5187 O.3       1 <0>        -0.3625
     28 S1          3.6961   -2.7227    6.7558 S.3       1 <0>        -0.3710
     29 H1         10.0283   -0.3402    2.6534 H         1 <0>         0.1500
     30 H2          8.4386   -0.8786    0.8454 H         1 <0>         0.1500
     31 H3          9.5730   -1.0329    4.9954 H         1 <0>         0.1500
     32 H4          6.3389   -2.1342    1.3263 H         1 <0>         0.1500
     33 H5          8.7911    0.8817    9.3890 H         1 <0>         0.1500
     34 H6          7.0103    3.8778    6.9066 H         1 <0>         0.1500
     35 H7          6.5091   -0.5163    9.8051 H         1 <0>         0.1500
     36 H8          4.8334   -4.5005    3.0586 H         1 <0>         0.0000
     37 H9          3.7641   -3.4766    4.0760 H         1 <0>         0.0000
     38 H10         4.3679   -2.8502    2.5210 H         1 <0>         0.0000
     39 H11        13.2799    2.5432    6.4440 H         1 <0>         0.0000
     40 H12        12.1590    1.2007    6.8303 H         1 <0>         0.0000
     41 H13        12.5148    2.4503    8.0519 H         1 <0>         0.0000
     42 H14         6.4665    2.0066    9.9853 H         1 <0>         0.0000
     43 H15         5.6691    2.9227    8.7259 H         1 <0>         0.0000
     44 H16         4.8007   -4.6915    5.9318 H         1 <0>         0.0000
     45 H17         5.6791   -3.9749    7.2735 H         1 <0>         0.0000
@<TRIPOS>BOND
     1    1    2 ar
     2    1    3 ar
     3    2    4 ar
     4    3    8 ar
     5    4    9 ar
     6    5    7 ar
     7    5   20 ar
     8    6    7 ar
     9    6   21 ar
    10    7   18 1
    11    8    9 ar
    12    8   22 1
    13    9   25 1
    14   10   19 1
    15   10   22 2
    16   10   25 1
    17   11   20 ar
    18   11   21 ar
    19   11   27 1
    20   12   13 2
    21   12   24 1
    22   13   14 1
    23   13   18 1
    24   14   23 1
    25   14   26 2
    26   15   23 1
    27   15   24 2
    28   15   28 1
    29   16   25 1
    30   17   27 1
    31   19   28 1
    32    1   29 1
    33    2   30 1
    34    3   31 1
    35    4   32 1
    36    5   33 1
    37    6   34 1
    38   12   35 1
    39   16   36 1
    40   16   37 1
    41   16   38 1
    42   17   39 1
    43   17   40 1
    44   17   41 1
    45   18   42 1
    46   18   43 1
    47   19   44 1
    48   19   45 1
