@<TRIPOS>MOLECULE
*****
   36    37     0     0     0
SMALL
USER_CHARGES

@<TRIPOS>ATOM
      1 C1         -2.5130    1.2964    4.6353 C.ar      1 <0>        -0.1500
      2 C2         -1.4612    2.2182    4.7880 C.ar      1 <0>        -0.1500
      3 C3         -2.8741    0.8210    3.3689 C.ar      1 <0>        -0.1500
      4 C4         -0.7574    2.6829    3.6776 C.ar      1 <0>        -0.1500
      5 C5         -2.1603    1.2662    2.2732 C.ar      1 <0>         0.1000
      6 C6         -1.1381    2.1914    2.4454 C.ar      1 <0>         0.3640
      7 C7         -1.9256    2.4377   -0.9138 C.2       1 <0>         0.3290
      8 C8         -2.1724    3.0033   -3.1118 C.2       1 <0>         0.9310
      9 C9         -1.3205    1.6391    0.1848 C.3       1 <0>         0.9331
     10 C10        -1.8810    4.8338   -5.2864 C.3       1 <0>         0.0000
     11 C11        -1.5134    2.7971   -6.7097 C.3       1 <0>         0.0000
     12 C12        -3.7060    3.1175   -5.5274 C.3       1 <0>         0.0000
     13 C13        -2.1972    3.3491   -5.4607 C.3       1 <0>         0.2800
     14 N1         -1.5779    2.2326   -2.1400 N.2       1 <0>        -0.6610
     15 N2         -2.3754    0.9754    0.9333 N.pl3     1 <0>        -0.8691
     16 N3         -0.5703    2.5394    1.1572 N.4       1 <0>        -0.7670
     17 O1         -3.0127    3.8823   -2.9485 O.2       1 <0>        -0.5700
     18 O2         -1.6759    2.6367   -4.3330 O.3       1 <0>        -0.4300
     19 H1         -3.0554    0.9534    5.5126 H         1 <0>         0.1500
     20 H2         -1.2010    2.5747    5.7810 H         1 <0>         0.1500
     21 H3         -3.6953    0.1202    3.2603 H         1 <0>         0.1500
     22 H4          0.0471    3.4010    3.7846 H         1 <0>         0.1500
     23 H5         -2.6710    3.1968   -0.6180 H         1 <0>         0.0600
     24 H6         -0.5982    0.9193   -0.2138 H         1 <0>         0.0000
     25 H7         -2.3700    5.2338   -4.3909 H         1 <0>         0.0000
     26 H8         -0.8036    5.0097   -5.2022 H         1 <0>         0.0000
     27 H9         -2.2617    5.4167   -6.1329 H         1 <0>         0.0000
     28 H10        -1.7375    1.7320   -6.8387 H         1 <0>         0.0000
     29 H11        -0.4235    2.8751   -6.6247 H         1 <0>         0.0000
     30 H12        -1.8298    3.3298   -7.6123 H         1 <0>         0.0000
     31 H13        -3.9331    2.0526   -5.6524 H         1 <0>         0.0000
     32 H14        -4.2092    3.4742   -4.6228 H         1 <0>         0.0000
     33 H15        -4.1411    3.6301   -6.3930 H         1 <0>         0.0000
     34 H16        -2.8919    0.1716    0.6083 H         1 <0>         0.4000
     35 H17        -0.7235    3.5405    0.9775 H         1 <0>         0.4500
     36 H18         0.4411    2.3535    1.1564 H         1 <0>         0.4500
@<TRIPOS>BOND
     1    1    2 ar
     2    1    3 ar
     3    2    4 ar
     4    3    5 ar
     5    4    6 ar
     6    5    6 ar
     7    5   15 1
     8    6   16 1
     9    7    9 1
    10    7   14 2
    11    8   14 1
    12    8   17 2
    13    8   18 1
    14    9   15 1
    15    9   16 1
    16   10   13 1
    17   11   13 1
    18   12   13 1
    19   13   18 1
    20    1   19 1
    21    2   20 1
    22    3   21 1
    23    4   22 1
    24    7   23 1
    25    9   24 1
    26   10   25 1
    27   10   26 1
    28   10   27 1
    29   11   28 1
    30   11   29 1
    31   11   30 1
    32   12   31 1
    33   12   32 1
    34   12   33 1
    35   15   34 1
    36   16   35 1
    37   16   36 1
