@<TRIPOS>MOLECULE
*****
   27    29     0     0     0
SMALL
USER_CHARGES

@<TRIPOS>ATOM
      1 C1          1.0308    5.2644   -3.4454 C.ar      1 <0>        -0.1500
      2 C2          1.6520    4.0675   -3.8019 C.ar      1 <0>        -0.1500
      3 C3          0.2820    5.3387   -2.2709 C.ar      1 <0>        -0.1500
      4 C4          1.5243    2.9448   -2.9840 C.ar      1 <0>        -0.1500
      5 C5          0.1543    4.2160   -1.4530 C.ar      1 <0>        -0.1500
      6 C6          1.3922    0.4564    0.8677 C.ar      1 <0>        -0.1500
      7 C7          0.3016   -0.3475    0.5580 C.ar      1 <0>        -0.0370
      8 C8          0.7755    3.0191   -1.8095 C.ar      1 <0>         0.0000
      9 C9          1.5535    1.5926    0.0701 C.ar      1 <0>         0.1770
     10 C10         0.6431    1.8514   -0.9592 C.ar      1 <0>         0.3100
     11 C11        -0.5435    0.0191   -0.5018 C.ar      1 <0>         0.1054
     12 C12        -0.1622   -1.6534    1.2246 C.cat     1 <0>         0.7690
     13 N1         -0.4344    1.0937   -1.2950 N.ar      1 <0>        -0.5670
     14 N2         -1.4956   -0.9935   -0.5146 N.pl3     1 <0>         0.2916
     15 N3         -1.2547   -2.0187    0.5500 N.pl3     1 <0>        -0.7600
     16 N4          0.4348   -2.2400    2.2476 N.pl3     1 <0>        -0.7320
     17 Cl1         2.8892    2.6373    0.4043 Cl        1 <0>        -0.1770
     18 H1          1.1317    6.1388   -4.0815 H         1 <0>         0.1500
     19 H2          2.2364    4.0100   -4.7155 H         1 <0>         0.1500
     20 H3         -0.2008    6.2707   -1.9919 H         1 <0>         0.1500
     21 H4          2.0148    2.0190   -3.2756 H         1 <0>         0.1500
     22 H5         -0.4321    4.2891   -0.5401 H         1 <0>         0.1500
     23 H6          2.0724    0.2142    1.6763 H         1 <0>         0.1500
     24 H7         -2.2834   -1.0883   -1.1426 H         1 <0>         0.2700
     25 H8         -1.8591   -2.8239    0.6802 H         1 <0>         0.4500
     26 H9          1.3215   -1.8881    2.6768 H         1 <0>         0.4500
     27 H10         0.1230   -3.1538    2.6502 H         1 <0>         0.4500
@<TRIPOS>BOND
     1    1    2 ar
     2    1    3 ar
     3    2    4 ar
     4    3    5 ar
     5    4    8 ar
     6    5    8 ar
     7    6    7 ar
     8    6    9 ar
     9    7   11 ar
    10    7   12 1
    11    8   10 1
    12    9   10 ar
    13    9   17 1
    14   10   13 ar
    15   11   13 ar
    16   11   14 1
    17   12   15 2
    18   12   16 1
    19   14   15 1
    20    1   18 1
    21    2   19 1
    22    3   20 1
    23    4   21 1
    24    5   22 1
    25    6   23 1
    26   14   24 1
    27   15   25 1
    28   16   26 1
    29   16   27 1
