@<TRIPOS>MOLECULE
*****
   26    28     0     0     0
SMALL
USER_CHARGES

@<TRIPOS>ATOM
      1 C1          4.3466   -4.4110    0.1186 C.ar      1 <0>        -0.1500
      2 C2          3.8588   -3.8805    1.3128 C.ar      1 <0>        -0.1500
      3 C3          3.8897   -3.9156   -1.1028 C.ar      1 <0>        -0.1500
      4 C4          2.9140   -2.8547    1.2858 C.ar      1 <0>        -0.1500
      5 C5          2.9449   -2.8899   -1.1298 C.ar      1 <0>        -0.1500
      6 C6          2.4570   -2.3594    0.0645 C.ar      1 <0>         0.0284
      7 C7          0.7684    1.0516   -0.0081 C.2       1 <0>        -0.1500
      8 C8          1.4711   -1.2891    0.0357 C.2       1 <0>         0.0716
      9 C9         -0.5189    0.6941   -0.0177 C.2       1 <0>         0.0288
     10 C10         1.8131    0.0246    0.0207 C.2       1 <0>         0.1400
     11 C11        -0.8667   -0.7307    0.0002 C.2       1 <0>         0.4856
     12 C12        -1.8061    1.3774   -0.0435 C.2       1 <0>         0.4856
     13 N1         -2.1666   -0.8601   -0.0130 N.2       1 <0>        -0.4500
     14 N2         -2.7598    0.4678   -0.0406 N.2       1 <0>        -0.4500
     15 N3          0.1336   -1.6730    0.0265 N.pl3     1 <0>        -0.5500
     16 N4         -1.9781    2.7309   -0.0662 N.pl3     1 <0>        -0.8500
     17 Cl1         3.4514    0.5782    0.0323 Cl        1 <0>        -0.1400
     18 H1          5.0832   -5.2088    0.1396 H         1 <0>         0.1500
     19 H2          4.2153   -4.2653    2.2639 H         1 <0>         0.1500
     20 H3          4.2703   -4.3278   -2.0327 H         1 <0>         0.1500
     21 H4          2.5430   -2.4514    2.2251 H         1 <0>         0.1500
     22 H5          2.5984   -2.5144   -2.0897 H         1 <0>         0.1500
     23 H6          1.0569    2.0971   -0.0220 H         1 <0>         0.1500
     24 H7         -0.0761   -2.6652    0.0391 H         1 <0>         0.4000
     25 H8         -1.1702    3.3144   -0.0654 H         1 <0>         0.4000
     26 H9         -2.9062    3.0936   -0.0828 H         1 <0>         0.4000
@<TRIPOS>BOND
     1    1    2 ar
     2    1    3 ar
     3    2    4 ar
     4    3    5 ar
     5    4    6 ar
     6    5    6 ar
     7    6    8 1
     8    7    9 2
     9    7   10 1
    10    8   10 2
    11    8   15 1
    12    9   11 1
    13    9   12 1
    14   10   17 1
    15   11   13 2
    16   11   15 1
    17   12   14 2
    18   12   16 1
    19   13   14 1
    20    1   18 1
    21    2   19 1
    22    3   20 1
    23    4   21 1
    24    5   22 1
    25    7   23 1
    26   15   24 1
    27   16   25 1
    28   16   26 1
