@<TRIPOS>MOLECULE
*****
   30    31     0     0     0
SMALL
USER_CHARGES

@<TRIPOS>ATOM
      1 C1          5.0549   -1.4753    3.4749 C.ar      1 <0>        -0.1500
      2 C2          4.5450   -2.3611    4.4240 C.ar      1 <0>        -0.1500
      3 C3          4.0412   -3.9475    2.6728 C.ar      1 <0>        -0.1500
      4 C4          5.0579   -1.8254    2.1247 C.ar      1 <0>        -0.1435
      5 C5          4.5511   -3.0615    1.7236 C.ar      1 <0>         0.3640
      6 C6          4.0382   -3.5972    4.0230 C.ar      1 <0>         0.1770
      7 C7          2.2248   -2.8986   -2.5626 C.2       1 <0>        -0.1500
      8 C8          2.3866   -3.2909   -3.8317 C.2       1 <0>        -0.1500
      9 C9          3.3220   -3.2796   -1.7051 C.2       1 <0>         0.1010
     10 C10         3.6211   -4.0060   -4.0533 C.2       1 <0>         0.1010
     11 C11         3.4065   -3.0094   -0.3988 C.2       1 <0>         0.2060
     12 C12         4.0214   -4.5030   -5.2276 C.2       1 <0>        -0.0733
     13 C13         5.6086   -0.8585    1.1282 C.3       1 <0>         0.1435
     14 N1          4.5459   -3.4493    0.3083 N.4       1 <0>        -0.6200
     15 O1          5.0994   -5.1349   -5.4521 O.3       1 <0>        -0.8500
     16 O2          3.0876   -4.2494   -6.2536 O.3       1 <0>        -0.5267
     17 S1          4.5575   -4.1546   -2.5825 S.3       1 <0>        -0.2020
     18 Cl1         3.4111   -4.6904    5.1950 Cl        1 <0>        -0.1770
     19 H1          5.4456   -0.5136    3.7974 H         1 <0>         0.1500
     20 H2          4.5455   -2.0740    5.4724 H         1 <0>         0.1500
     21 H3          3.6462   -4.9105    2.3566 H         1 <0>         0.1500
     22 H4          1.3632   -2.3505   -2.2077 H         1 <0>         0.1500
     23 H5          1.6706   -3.0951   -4.6177 H         1 <0>         0.1500
     24 H6          2.6261   -2.4664    0.1195 H         1 <0>         0.1500
     25 H7          6.6817   -1.0304    0.9854 H         1 <0>         0.0000
     26 H8          5.1060   -0.9596    0.1585 H         1 <0>         0.0000
     27 H9          5.4611    0.1773    1.4580 H         1 <0>         0.0000
     28 H10         4.6326   -4.4764    0.2606 H         1 <0>         0.4500
     29 H11         5.4084   -3.0829   -0.1236 H         1 <0>         0.4500
     30 H12         3.4658   -4.6457   -7.0581 H         1 <0>         0.4500
@<TRIPOS>BOND
     1    1    2 ar
     2    1    4 ar
     3    2    6 ar
     4    3    5 ar
     5    3    6 ar
     6    4    5 ar
     7    4   13 1
     8    5   14 1
     9    6   18 1
    10    7    8 2
    11    7    9 1
    12    8   10 1
    13    9   11 2
    14    9   17 1
    15   10   12 2
    16   10   17 1
    17   11   14 1
    18   12   15 1
    19   12   16 1
    20    1   19 1
    21    2   20 1
    22    3   21 1
    23    7   22 1
    24    8   23 1
    25   11   24 1
    26   13   25 1
    27   13   26 1
    28   13   27 1
    29   14   28 1
    30   14   29 1
    31   16   30 1
