@<TRIPOS>MOLECULE
SAMPL8-14_extra012
 44 45 0 0 0
SMALL
GASTEIGER

@<TRIPOS>ATOM
      1 C          -3.2795   -3.6273    0.3843 C.3     1  LIG1       -0.0362
      2 C          -2.5722   -2.3649   -0.1030 C.ar    1  LIG1       -0.0085
      3 C          -1.5163   -2.4983   -1.0036 C.ar    1  LIG1       -0.0519
      4 C          -0.8426   -1.3733   -1.4703 C.ar    1  LIG1       -0.0422
      5 C          -1.2334   -0.1057   -1.0371 C.ar    1  LIG1       -0.0511
      6 C          -2.2933    0.0751   -0.1277 C.ar    1  LIG1       -0.0001
      7 C          -2.9597   -1.0869    0.3334 C.ar    1  LIG1        0.1234
      8 O          -4.0035   -1.0175    1.2193 O.3     1  LIG1       -0.5062
      9 C          -2.6980    1.5099    0.3399 C.3     1  LIG1       -0.0092
     10 C          -1.8301    2.6325   -0.2937 C.3     1  LIG1       -0.0559
     11 C          -4.1598    1.8234   -0.0629 C.3     1  LIG1       -0.0559
     12 C          -2.5263    1.6531    1.8720 C.3     1  LIG1       -0.0559
     13 C           0.3128   -1.5257   -2.4574 C.3     1  LIG1        0.0047
     14 C           1.7231   -1.6354   -1.8530 C.2     1  LIG1        0.0629
     15 C           1.9220   -1.6232   -0.4943 C.3     1  LIG1        0.1346
     16 N           3.2116   -1.7200    0.0577 N.pl3   1  LIG1       -0.2203
     17 C           4.3057   -1.8239   -0.8406 C.cat   1  LIG1        0.4089
     18 N           5.6149   -1.9207   -0.3726 N.pl3   1  LIG1       -0.2437
     19 N           4.1396   -1.8381   -2.1082 N.2     1  LIG1        0.0207
     20 C           2.9006   -1.7516   -2.6373 C.2     1  LIG1        0.3188
     21 N           2.8805   -1.7834   -3.9347 N.pl3   1  LIG1       -0.2464
     22 H          -4.3388   -3.5993    0.1250 H       1  LIG1        0.0279
     23 H          -3.2054   -3.7158    1.4690 H       1  LIG1        0.0279
     24 H          -2.8576   -4.5349   -0.0504 H       1  LIG1        0.0279
     25 H          -1.2133   -3.4809   -1.3412 H       1  LIG1        0.0624
     26 H          -0.6824    0.7365   -1.4268 H       1  LIG1        0.0624
     27 H          -4.3280   -1.9054    1.4125 H       1  LIG1        0.2922
     28 H          -1.9109    2.6462   -1.3817 H       1  LIG1        0.0238
     29 H          -2.1349    3.6223    0.0503 H       1  LIG1        0.0238
     30 H          -0.7752    2.5281   -0.0354 H       1  LIG1        0.0238
     31 H          -4.4359    2.8488    0.1870 H       1  LIG1        0.0238
     32 H          -4.3112    1.7009   -1.1362 H       1  LIG1        0.0238
     33 H          -4.8837    1.1846    0.4402 H       1  LIG1        0.0238
     34 H          -2.7303    2.6711    2.2071 H       1  LIG1        0.0238
     35 H          -3.1993    1.0090    2.4354 H       1  LIG1        0.0238
     36 H          -1.5095    1.4089    2.1824 H       1  LIG1        0.0238
     37 H           0.1278   -2.4063   -3.0769 H       1  LIG1        0.0362
     38 H           0.2900   -0.6781   -3.1462 H       1  LIG1        0.0362
     39 H           1.1324   -1.5345    0.2415 H       1  LIG1        0.0757
     40 H           3.4209   -1.6694    1.0424 H       1  LIG1        0.2459
     41 H           5.7609   -2.5970    0.3577 H       1  LIG1        0.2419
     42 H           6.2745   -2.1092   -1.1077 H       1  LIG1        0.2419
     43 H           2.0220   -1.7277   -4.4633 H       1  LIG1        0.2884
     44 H           3.7540   -1.8670   -4.4347 H       1  LIG1        0.2884
@<TRIPOS>BOND
     1    43    21    1
     2    44    21    1
     3    21    20    1
     4    38    13    1
     5    37    13    1
     6    20    19    1
     7    20    14    2
     8    13    14    1
     9    13     4    1
    10    19    17    2
    11    14    15    1
    12     4     5   ar
    13     4     3   ar
    14    26     5    1
    15    28    10    1
    16    25     3    1
    17    32    11    1
    18    42    18    1
    19     5     6   ar
    20     3     2   ar
    21    17    18    1
    22    17    16    1
    23    15    16    1
    24    15    39    1
    25    18    41    1
    26    10    30    1
    27    10    29    1
    28    10     9    1
    29     6     7   ar
    30     6     9    1
    31     2     7   ar
    32     2     1    1
    33    11    31    1
    34    11     9    1
    35    11    33    1
    36    24     1    1
    37    16    40    1
    38    22     1    1
    39     7     8    1
    40     9    12    1
    41     1    23    1
    42     8    27    1
    43    12    36    1
    44    12    34    1
    45    12    35    1
