@<TRIPOS>MOLECULE
SAMPL8-14_extra009
 44 45 0 0 0
SMALL
GASTEIGER

@<TRIPOS>ATOM
      1 C          -2.0568   -3.4578    2.7115 C.3     1  LIG1       -0.0362
      2 C          -1.8137   -2.7373    1.3875 C.ar    1  LIG1       -0.0085
      3 C          -1.1392   -3.4162    0.3737 C.ar    1  LIG1       -0.0519
      4 C          -0.8940   -2.7948   -0.8472 C.ar    1  LIG1       -0.0422
      5 C          -1.3335   -1.4871   -1.0570 C.ar    1  LIG1       -0.0511
      6 C          -2.0176   -0.7642   -0.0607 C.ar    1  LIG1       -0.0001
      7 C          -2.2512   -1.4195    1.1733 C.ar    1  LIG1        0.1234
      8 O          -2.9086   -0.8026    2.2060 O.3     1  LIG1       -0.5062
      9 C          -2.4891    0.7010   -0.3295 C.3     1  LIG1       -0.0092
     10 C          -1.8186    1.6811    0.6642 C.3     1  LIG1       -0.0559
     11 C          -2.1231    1.2161   -1.7492 C.3     1  LIG1       -0.0559
     12 C          -4.0301    0.8068   -0.2223 C.3     1  LIG1       -0.0559
     13 C          -0.1548   -3.5442   -1.9528 C.3     1  LIG1        0.0047
     14 C           1.3698   -3.3871   -1.9904 C.2     1  LIG1        0.0627
     15 C           2.0600   -2.6420   -1.0755 C.3     1  LIG1        0.1850
     16 N           3.4166   -2.4652   -1.0593 N.2     1  LIG1       -0.0970
     17 C           4.1262   -3.0215   -1.9566 C.cat   1  LIG1        0.4002
     18 N           5.5141   -2.8401   -1.9327 N.pl3   1  LIG1       -0.2441
     19 N           3.5103   -3.8082   -2.9381 N.pl3   1  LIG1       -0.1494
     20 C           2.1814   -3.9934   -2.9645 C.2     1  LIG1        0.2655
     21 N           1.7113   -4.7599   -3.9380 N.pl3   1  LIG1       -0.2511
     22 H          -1.6549   -4.4723    2.7130 H       1  LIG1        0.0279
     23 H          -1.5898   -2.9166    3.5356 H       1  LIG1        0.0279
     24 H          -3.1250   -3.5259    2.9220 H       1  LIG1        0.0279
     25 H          -0.7995   -4.4311    0.5346 H       1  LIG1        0.0624
     26 H          -1.1226   -1.0473   -2.0199 H       1  LIG1        0.0624
     27 H          -2.9732   -1.4042    2.9576 H       1  LIG1        0.2922
     28 H          -2.0758    2.7180    0.4434 H       1  LIG1        0.0238
     29 H          -2.1189    1.5088    1.6964 H       1  LIG1        0.0238
     30 H          -0.7312    1.6032    0.6265 H       1  LIG1        0.0238
     31 H          -2.5836    0.6136   -2.5337 H       1  LIG1        0.0238
     32 H          -2.4638    2.2406   -1.9079 H       1  LIG1        0.0238
     33 H          -1.0449    1.2208   -1.9168 H       1  LIG1        0.0238
     34 H          -4.5244    0.1041   -0.8944 H       1  LIG1        0.0238
     35 H          -4.3992    0.6066    0.7822 H       1  LIG1        0.0238
     36 H          -4.3847    1.8054   -0.4817 H       1  LIG1        0.0238
     37 H          -0.3839   -4.6088   -1.8773 H       1  LIG1        0.0362
     38 H          -0.5520   -3.2306   -2.9199 H       1  LIG1        0.0362
     39 H           1.5207   -2.1364   -0.2832 H       1  LIG1        0.0821
     40 H           5.9237   -2.5414   -2.8029 H       1  LIG1        0.2419
     41 H           5.8262   -2.2040   -1.2175 H       1  LIG1        0.2419
     42 H           4.0600   -4.2699   -3.6424 H       1  LIG1        0.3039
     43 H           0.7217   -4.9414   -4.0130 H       1  LIG1        0.2882
     44 H           2.3199   -5.1812   -4.6246 H       1  LIG1        0.2882
@<TRIPOS>BOND
     1    44    21    1
     2    43    21    1
     3    21    20    1
     4    42    19    1
     5    20    19    1
     6    20    14    2
     7    19    17    1
     8    38    13    1
     9    40    18    1
    10    31    11    1
    11    26     5    1
    12    14    13    1
    13    14    15    1
    14    17    18    1
    15    17    16    2
    16    13    37    1
    17    13     4    1
    18    18    41    1
    19    33    11    1
    20    32    11    1
    21    11     9    1
    22    15    16    1
    23    15    39    1
    24     5     4   ar
    25     5     6   ar
    26    34    12    1
    27     4     3   ar
    28    36    12    1
    29     9    12    1
    30     9     6    1
    31     9    10    1
    32    12    35    1
    33     6     7   ar
    34     3    25    1
    35     3     2   ar
    36    28    10    1
    37    30    10    1
    38    10    29    1
    39     7     2   ar
    40     7     8    1
    41     2     1    1
    42     8    27    1
    43     1    22    1
    44     1    24    1
    45     1    23    1
