@<TRIPOS>MOLECULE
SAMPL8-14_extra011
 44 45 0 0 0
SMALL
GASTEIGER

@<TRIPOS>ATOM
      1 C          -1.7812   -3.4170    0.6557 C.3     1  LIG1       -0.0362
      2 C          -1.6331   -1.9582    0.2295 C.ar    1  LIG1       -0.0085
      3 C          -0.3787   -1.5073   -0.1798 C.ar    1  LIG1       -0.0519
      4 C          -0.2014   -0.1856   -0.5789 C.ar    1  LIG1       -0.0420
      5 C          -1.2861    0.6918   -0.5619 C.ar    1  LIG1       -0.0511
      6 C          -2.5702    0.2789   -0.1573 C.ar    1  LIG1       -0.0001
      7 C          -2.7230   -1.0718    0.2413 C.ar    1  LIG1        0.1234
      8 O          -3.9315   -1.5712    0.6526 O.3     1  LIG1       -0.5062
      9 C          -3.7623    1.2889   -0.1578 C.3     1  LIG1       -0.0092
     10 C          -3.3626    2.7136   -0.6324 C.3     1  LIG1       -0.0559
     11 C          -4.8772    0.8163   -1.1225 C.3     1  LIG1       -0.0559
     12 C          -4.3333    1.4608    1.2711 C.3     1  LIG1       -0.0559
     13 C           1.1752    0.3051   -1.0232 C.3     1  LIG1        0.0064
     14 C           1.4641    0.2699   -2.5342 C.2     1  LIG1        0.0604
     15 C           0.5722   -0.2530   -3.4147 C.2     1  LIG1        0.0057
     16 N           0.8850   -0.2470   -4.7525 N.pl3   1  LIG1       -0.2873
     17 C           2.0643    0.2799   -5.1298 C.3     1  LIG1        0.3507
     18 N           2.3534    0.2837   -6.4069 N.3     1  LIG1       -0.2637
     19 N           2.9714    0.8035   -4.2949 N.2     1  LIG1       -0.0317
     20 C           2.7077    0.8090   -3.0566 C.2     1  LIG1        0.3127
     21 N           3.6533    1.3450   -2.2678 N.pl3   1  LIG1       -0.2466
     22 H          -2.1256   -3.4830    1.6888 H       1  LIG1        0.0279
     23 H          -2.5128   -3.9287    0.0287 H       1  LIG1        0.0279
     24 H          -0.8427   -3.9691    0.5846 H       1  LIG1        0.0279
     25 H           0.4638   -2.1866   -0.1921 H       1  LIG1        0.0624
     26 H          -1.0991    1.7063   -0.8792 H       1  LIG1        0.0624
     27 H          -3.8379   -2.5028    0.8857 H       1  LIG1        0.2922
     28 H          -2.6018    3.1593    0.0101 H       1  LIG1        0.0238
     29 H          -2.9811    2.7113   -1.6546 H       1  LIG1        0.0238
     30 H          -4.2133    3.3969   -0.6225 H       1  LIG1        0.0238
     31 H          -5.3417   -0.1168   -0.8079 H       1  LIG1        0.0238
     32 H          -5.6841    1.5470   -1.1949 H       1  LIG1        0.0238
     33 H          -4.4908    0.6612   -2.1308 H       1  LIG1        0.0238
     34 H          -3.5576    1.7653    1.9750 H       1  LIG1        0.0238
     35 H          -5.1155    2.2206    1.3040 H       1  LIG1        0.0238
     36 H          -4.7821    0.5483    1.6601 H       1  LIG1        0.0238
     37 H           1.3046    1.3292   -0.6643 H       1  LIG1        0.0364
     38 H           1.9405   -0.2782   -0.5062 H       1  LIG1        0.0364
     39 H          -0.3886   -0.6838   -3.1604 H       1  LIG1        0.0785
     40 H           0.2648   -0.6192   -5.4530 H       1  LIG1        0.1514
     41 H           1.7346   -0.0862   -7.1074 H       1  LIG1        0.1243
     42 H           3.2377    0.6811   -6.6705 H       1  LIG1        0.1243
     43 H           3.7631    0.9183   -1.3654 H       1  LIG1        0.2884
     44 H           4.4889    1.5128   -2.8010 H       1  LIG1        0.2884
@<TRIPOS>BOND
     1    41    18    1
     2    42    18    1
     3    18    17    1
     4    40    16    1
     5    17    16    1
     6    17    19    1
     7    16    15    1
     8    19    20    2
     9    15    39    1
    10    15    14    2
    11    20    14    1
    12    20    21    1
    13    44    21    1
    14    14    13    1
    15    21    43    1
    16    33    11    1
    17    29    10    1
    18    32    11    1
    19    11    31    1
    20    11     9    1
    21    13    37    1
    22    13     4    1
    23    13    38    1
    24    26     5    1
    25    10    30    1
    26    10     9    1
    27    10    28    1
    28     4     5   ar
    29     4     3   ar
    30     5     6   ar
    31    25     3    1
    32     3     2   ar
    33     9     6    1
    34     9    12    1
    35     6     7   ar
    36    23     1    1
    37     2     7   ar
    38     2     1    1
    39     7     8    1
    40    24     1    1
    41     8    27    1
    42     1    22    1
    43    12    35    1
    44    12    36    1
    45    12    34    1
