@<TRIPOS>MOLECULE
SAMPL8-21_extra011
 41 42 0 0 0
SMALL
GASTEIGER

@<TRIPOS>ATOM
      1 C           4.0604    3.0621   -0.1257 C.3     1  LIG1        0.0790
      2 O           4.1575    1.7552   -0.6924 O.3     1  LIG1       -0.4913
      3 C           3.0894    0.8797   -0.5720 C.ar    1  LIG1        0.1652
      4 C           1.8908    1.1976    0.0856 C.ar    1  LIG1       -0.0126
      5 C           0.8548    0.2662    0.1712 C.ar    1  LIG1       -0.0358
      6 C           1.0103   -0.9910   -0.4149 C.ar    1  LIG1       -0.0126
      7 C           2.1977   -1.3403   -1.0770 C.ar    1  LIG1        0.1652
      8 C           3.2329   -0.3922   -1.1479 C.ar    1  LIG1        0.2010
      9 O           4.4136   -0.6954   -1.7899 O.3     1  LIG1       -0.5009
     10 O           2.4035   -2.5771   -1.6687 O.3     1  LIG1       -0.4913
     11 C           1.3772   -3.5674   -1.6062 C.3     1  LIG1        0.0790
     12 C          -0.4474    0.6198    0.8774 C.3     1  LIG1        0.0077
     13 C          -0.7539   -0.2908    2.0689 C.2     1  LIG1        0.0959
     14 C           0.0384   -0.3667    3.2243 C.2     1  LIG1        0.2683
     15 N           1.1615    0.3145    3.3900 N.pl3   1  LIG1       -0.2510
     16 N          -0.3325   -1.1612    4.2372 N.pl3   1  LIG1       -0.1493
     17 C          -1.4937   -1.9364    4.1745 C.cat   1  LIG1        0.4028
     18 N          -1.8777   -2.7671    5.2296 N.pl3   1  LIG1       -0.2441
     19 N          -2.2218   -1.8982    3.1362 N.2     1  LIG1       -0.0609
     20 C          -1.8532   -1.0999    2.0878 C.3     1  LIG1        0.3247
     21 O          -2.7274   -1.0889    1.0495 O.3     1  LIG1       -0.3345
     22 C          -3.1143   -2.3588    0.5175 C.3     1  LIG1        0.0411
     23 H           4.9842    3.6092   -0.3139 H       1  LIG1        0.0660
     24 H           3.9194    3.0238    0.9556 H       1  LIG1        0.0660
     25 H           3.2460    3.6358   -0.5711 H       1  LIG1        0.0660
     26 H           1.7507    2.1716    0.5306 H       1  LIG1        0.0658
     27 H           0.1919   -1.6916   -0.3432 H       1  LIG1        0.0658
     28 H           5.0045    0.0700   -1.7424 H       1  LIG1        0.2924
     29 H           0.4643   -3.2344   -2.1026 H       1  LIG1        0.0660
     30 H           1.1432   -3.8419   -0.5763 H       1  LIG1        0.0660
     31 H           1.7132   -4.4708   -2.1153 H       1  LIG1        0.0660
     32 H          -1.2478    0.6027    0.1358 H       1  LIG1        0.0363
     33 H          -0.4188    1.6481    1.2415 H       1  LIG1        0.0363
     34 H           1.7045    0.2564    4.2390 H       1  LIG1        0.2882
     35 H           1.5174    0.8777    2.6326 H       1  LIG1        0.2882
     36 H           0.2640   -1.2005    5.0457 H       1  LIG1        0.3039
     37 H          -1.9203   -2.3178    6.1290 H       1  LIG1        0.2420
     38 H          -2.7651   -3.2144    5.0741 H       1  LIG1        0.2420
     39 H          -2.2492   -2.9616    0.2355 H       1  LIG1        0.0525
     40 H          -3.7145   -2.2098   -0.3798 H       1  LIG1        0.0525
     41 H          -3.7222   -2.9320    1.2194 H       1  LIG1        0.0525
@<TRIPOS>BOND
     1    31    11    1
     2    29    11    1
     3     9    28    1
     4     9     8    1
     5    10    11    1
     6    10     7    1
     7    11    30    1
     8     8     7   ar
     9     8     3   ar
    10     7     6   ar
    11     2     3    1
    12     2     1    1
    13     3     4   ar
    14    25     1    1
    15     6    27    1
    16     6     5   ar
    17    40    22    1
    18    23     1    1
    19     1    24    1
    20     4     5   ar
    21     4    26    1
    22    32    12    1
    23     5    12    1
    24    39    22    1
    25    22    21    1
    26    22    41    1
    27    12    33    1
    28    12    13    1
    29    21    20    1
    30    13    20    1
    31    13    14    2
    32    20    19    1
    33    35    15    1
    34    19    17    2
    35    14    15    1
    36    14    16    1
    37    15    34    1
    38    17    16    1
    39    17    18    1
    40    16    36    1
    41    38    18    1
    42    18    37    1
