@<TRIPOS>MOLECULE
SAMPL8-14_extra007
 44 45 0 0 0
SMALL
GASTEIGER

@<TRIPOS>ATOM
      1 C           1.8383   -3.4199    1.1405 C.3     1  LIG1       -0.0362
      2 C           1.6941   -2.1134    0.3637 C.ar    1  LIG1       -0.0085
      3 C           0.7459   -2.0460   -0.6565 C.ar    1  LIG1       -0.0519
      4 C           0.5836   -0.8749   -1.3919 C.ar    1  LIG1       -0.0423
      5 C           1.3693    0.2392   -1.0927 C.ar    1  LIG1       -0.0511
      6 C           2.3396    0.2153   -0.0728 C.ar    1  LIG1       -0.0001
      7 C           2.4875   -0.9910    0.6547 C.ar    1  LIG1        0.1234
      8 O           3.4028   -1.1162    1.6677 O.3     1  LIG1       -0.5062
      9 C           3.2062    1.4811    0.2238 C.3     1  LIG1       -0.0092
     10 C           2.8734    2.6858   -0.6996 C.3     1  LIG1       -0.0559
     11 C           2.9718    1.9764    1.6718 C.3     1  LIG1       -0.0559
     12 C           4.7082    1.1780    0.0022 C.3     1  LIG1       -0.0559
     13 C          -0.4564   -0.8035   -2.5040 C.3     1  LIG1        0.0027
     14 C           0.1243   -0.4393   -3.8714 C.2     1  LIG1        0.0374
     15 C          -0.3977    0.6131   -4.5556 C.3     1  LIG1        0.0615
     16 N           0.0978    0.9680   -5.8122 N.3     1  LIG1       -0.2485
     17 C           1.1391    0.2752   -6.4597 C.3     1  LIG1        0.2959
     18 N           1.5821    0.5843   -7.5930 N.3     1  LIG1       -0.1904
     19 N           1.6234   -0.7914   -5.7036 N.pl3   1  LIG1       -0.2001
     20 C           1.1728   -1.1375   -4.4914 C.2     1  LIG1        0.2569
     21 N           1.7772   -2.1722   -3.9362 N.pl3   1  LIG1       -0.2515
     22 H           2.3304   -0.0306   -7.8920 H       1  LIG1        0.1467
     23 H           2.8486   -3.8185    1.0386 H       1  LIG1        0.0279
     24 H           1.6507   -3.2584    2.2029 H       1  LIG1        0.0279
     25 H           1.1435   -4.1877    0.7966 H       1  LIG1        0.0279
     26 H           0.1313   -2.9089   -0.8774 H       1  LIG1        0.0624
     27 H           1.2041    1.1257   -1.6854 H       1  LIG1        0.0624
     28 H           3.3557   -2.0036    2.0438 H       1  LIG1        0.2922
     29 H           1.8374    3.0102   -0.5903 H       1  LIG1        0.0238
     30 H           3.4937    3.5541   -0.4711 H       1  LIG1        0.0238
     31 H           3.0445    2.4532   -1.7518 H       1  LIG1        0.0238
     32 H           3.5102    2.9038    1.8728 H       1  LIG1        0.0238
     33 H           1.9148    2.1696    1.8594 H       1  LIG1        0.0238
     34 H           3.3078    1.2630    2.4224 H       1  LIG1        0.0238
     35 H           5.0986    0.4405    0.7015 H       1  LIG1        0.0238
     36 H           4.8926    0.7989   -1.0039 H       1  LIG1        0.0238
     37 H           5.3228    2.0705    0.1288 H       1  LIG1        0.0238
     38 H          -1.2330   -0.0983   -2.1999 H       1  LIG1        0.0361
     39 H          -0.9628   -1.7652   -2.6073 H       1  LIG1        0.0361
     40 H          -1.2100    1.2361   -4.2013 H       1  LIG1        0.0530
     41 H          -0.2783    1.7439   -6.3334 H       1  LIG1        0.1282
     42 H           2.3712   -1.3567   -6.0672 H       1  LIG1        0.2946
     43 H           2.5155   -2.6782   -4.3994 H       1  LIG1        0.2881
     44 H           1.5392   -2.4147   -2.9860 H       1  LIG1        0.2881
@<TRIPOS>BOND
     1    22    18    1
     2    18    17    1
     3    17    16    1
     4    17    19    1
     5    41    16    1
     6    42    19    1
     7    16    15    1
     8    19    20    1
     9    15    40    1
    10    15    14    1
    11    20    21    1
    12    20    14    2
    13    43    21    1
    14    21    44    1
    15    14    13    1
    16    39    13    1
    17    13    38    1
    18    13     4    1
    19    31    10    1
    20    27     5    1
    21     4     5   ar
    22     4     3   ar
    23     5     6   ar
    24    36    12    1
    25    26     3    1
    26    10    29    1
    27    10    30    1
    28    10     9    1
    29     3     2   ar
    30     6     9    1
    31     6     7   ar
    32    12    37    1
    33    12     9    1
    34    12    35    1
    35     9    11    1
    36     2     7   ar
    37     2     1    1
    38     7     8    1
    39    25     1    1
    40    23     1    1
    41     1    24    1
    42     8    28    1
    43    11    33    1
    44    11    32    1
    45    11    34    1
