@<TRIPOS>MOLECULE
SAMPL8-14_extra001
 45 46 0 0 0
SMALL
GASTEIGER

@<TRIPOS>ATOM
      1 C          -3.1290    3.8045   -0.2162 C.3     1  LIG1       -0.0362
      2 C          -2.3209    2.5669    0.1674 C.ar    1  LIG1       -0.0085
      3 C          -1.0041    2.7370    0.5926 C.ar    1  LIG1       -0.0519
      4 C          -0.2310    1.6353    0.9492 C.ar    1  LIG1       -0.0423
      5 C          -0.7870    0.3563    0.8918 C.ar    1  LIG1       -0.0511
      6 C          -2.1119    0.1386    0.4681 C.ar    1  LIG1       -0.0001
      7 C          -2.8732    1.2762    0.1044 C.ar    1  LIG1        0.1234
      8 O          -4.1723    1.1690   -0.3207 O.3     1  LIG1       -0.5062
      9 C          -2.6963   -1.3093    0.4099 C.3     1  LIG1       -0.0092
     10 C          -1.6833   -2.4013    0.8525 C.3     1  LIG1       -0.0559
     11 C          -3.9119   -1.4460    1.3590 C.3     1  LIG1       -0.0559
     12 C          -3.1090   -1.6733   -1.0372 C.3     1  LIG1       -0.0559
     13 C           1.2069    1.8242    1.4190 C.3     1  LIG1        0.0027
     14 C           2.2434    1.1255    0.5363 C.2     1  LIG1        0.0374
     15 C           3.1667    0.3185    1.1082 C.3     1  LIG1        0.0615
     16 N           4.1187   -0.3079    0.3467 N.3     1  LIG1       -0.2497
     17 C           4.1961   -0.1555   -0.9754 C.3     1  LIG1        0.2795
     18 N           5.1297   -0.7626   -1.7018 N.3     1  LIG1       -0.2722
     19 N           3.2855    0.6395   -1.5342 N.pl3   1  LIG1       -0.2013
     20 C           2.3169    1.2719   -0.8573 C.2     1  LIG1        0.2569
     21 N           1.4721    2.0147   -1.5622 N.pl3   1  LIG1       -0.2515
     22 H          -3.4566    3.7453   -1.2551 H       1  LIG1        0.0279
     23 H          -4.0188    3.8934    0.4086 H       1  LIG1        0.0279
     24 H          -2.5566    4.7266   -0.1038 H       1  LIG1        0.0279
     25 H          -0.5822    3.7322    0.6486 H       1  LIG1        0.0624
     26 H          -0.1532   -0.4665    1.1849 H       1  LIG1        0.0624
     27 H          -4.5255    2.0444   -0.5186 H       1  LIG1        0.2922
     28 H          -1.3558   -2.2608    1.8837 H       1  LIG1        0.0238
     29 H          -2.1178   -3.4010    0.8011 H       1  LIG1        0.0238
     30 H          -0.7968   -2.4178    0.2167 H       1  LIG1        0.0238
     31 H          -4.7551   -0.8258    1.0594 H       1  LIG1        0.0238
     32 H          -4.2860   -2.4703    1.3904 H       1  LIG1        0.0238
     33 H          -3.6519   -1.1661    2.3808 H       1  LIG1        0.0238
     34 H          -2.2746   -1.5555   -1.7300 H       1  LIG1        0.0238
     35 H          -3.4469   -2.7079   -1.1123 H       1  LIG1        0.0238
     36 H          -3.9276   -1.0607   -1.4111 H       1  LIG1        0.0238
     37 H           1.4579    2.8866    1.4443 H       1  LIG1        0.0361
     38 H           1.2758    1.4905    2.4568 H       1  LIG1        0.0361
     39 H           3.2294    0.1184    2.1708 H       1  LIG1        0.0530
     40 H           4.8004   -0.9062    0.7894 H       1  LIG1        0.1281
     41 H           5.1828   -0.6420   -2.7026 H       1  LIG1        0.1237
     42 H           5.8234   -1.3662   -1.2851 H       1  LIG1        0.1237
     43 H           3.3233    0.7664   -2.5325 H       1  LIG1        0.2945
     44 H           0.6794    2.4256   -1.0918 H       1  LIG1        0.2881
     45 H           1.5513    2.1390   -2.5593 H       1  LIG1        0.2881
@<TRIPOS>BOND
     1    41    18    1
     2    45    21    1
     3    43    19    1
     4    34    12    1
     5    18    42    1
     6    18    17    1
     7    21    44    1
     8    21    20    1
     9    19    17    1
    10    19    20    1
    11    36    12    1
    12    22     1    1
    13    35    12    1
    14    12     9    1
    15    17    16    1
    16    20    14    2
    17    27     8    1
    18     8     7    1
    19     1    24    1
    20     1     2    1
    21     1    23    1
    22     7     2   ar
    23     7     6   ar
    24     2     3   ar
    25    30    10    1
    26    16    40    1
    27    16    15    1
    28     9     6    1
    29     9    10    1
    30     9    11    1
    31     6     5   ar
    32    14    15    1
    33    14    13    1
    34     3    25    1
    35     3     4   ar
    36    29    10    1
    37    10    28    1
    38     5     4   ar
    39     5    26    1
    40     4    13    1
    41    31    11    1
    42    15    39    1
    43    11    32    1
    44    11    33    1
    45    13    37    1
    46    13    38    1
