@<TRIPOS>MOLECULE
SAMPL8-21_extra006
 41 42 0 0 0
SMALL
GASTEIGER

@<TRIPOS>ATOM
      1 C          -0.6260    2.9532   -0.1146 C.3     1  LIG1        0.0790
      2 O           0.5443    2.4409   -0.7516 O.3     1  LIG1       -0.4913
      3 C           1.2307    1.3845   -0.1729 C.ar    1  LIG1        0.1652
      4 C           0.8329    0.7714    1.0258 C.ar    1  LIG1       -0.0126
      5 C           1.5618   -0.2872    1.5683 C.ar    1  LIG1       -0.0355
      6 C           2.7007   -0.7487    0.9082 C.ar    1  LIG1       -0.0126
      7 C           3.1267   -0.1556   -0.2897 C.ar    1  LIG1        0.1652
      8 C           2.3831    0.9089   -0.8228 C.ar    1  LIG1        0.2010
      9 O           2.8075    1.4839   -2.0005 O.3     1  LIG1       -0.5009
     10 O           4.2528   -0.5593   -0.9901 O.3     1  LIG1       -0.4913
     11 C           5.0535   -1.6234   -0.4746 C.3     1  LIG1        0.0790
     12 C           1.1093   -0.9343    2.8716 C.3     1  LIG1        0.0103
     13 C           1.4295   -0.0804    4.1072 C.2     1  LIG1        0.1019
     14 C           0.4722    0.6205    4.7535 C.2     1  LIG1        0.2650
     15 N          -0.8502    0.6993    4.4296 N.pl3   1  LIG1       -0.2511
     16 N           0.8021    1.3571    5.8493 N.pl3   1  LIG1       -0.1941
     17 C           2.0764    1.3526    6.2539 C.3     1  LIG1        0.3299
     18 N           2.3929    2.0628    7.3040 N.3     1  LIG1       -0.2650
     19 N           3.0624    0.6713    5.6649 N.2     1  LIG1       -0.1805
     20 C           2.7722   -0.0280    4.6295 C.2     1  LIG1        0.2261
     21 O           3.7330   -0.7662    3.9722 O.2     1  LIG1       -0.4794
     22 C           5.0871   -0.6877    4.4380 C.3     1  LIG1        0.0804
     23 H          -1.0290    3.7768   -0.7041 H       1  LIG1        0.0660
     24 H          -1.4073    2.1955   -0.0366 H       1  LIG1        0.0660
     25 H          -0.4062    3.3422    0.8810 H       1  LIG1        0.0660
     26 H          -0.0437    1.1116    1.5571 H       1  LIG1        0.0658
     27 H           3.2520   -1.5684    1.3446 H       1  LIG1        0.0658
     28 H           3.6091    1.0322   -2.3018 H       1  LIG1        0.2924
     29 H           5.4610   -1.3824    0.5087 H       1  LIG1        0.0660
     30 H           4.4907   -2.5559   -0.4080 H       1  LIG1        0.0660
     31 H           5.8972   -1.7997   -1.1420 H       1  LIG1        0.0660
     32 H           1.5613   -1.9231    2.9804 H       1  LIG1        0.0366
     33 H           0.0400   -1.1391    2.7974 H       1  LIG1        0.0366
     34 H          -1.2267    0.1782    3.6504 H       1  LIG1        0.2881
     35 H          -1.5222    1.2348    4.9635 H       1  LIG1        0.2881
     36 H           0.1146    1.8913    6.3428 H       1  LIG1        0.2951
     37 H           3.3564    2.0395    7.5856 H       1  LIG1        0.1243
     38 H           1.7237    2.6089    7.8173 H       1  LIG1        0.1243
     39 H           5.1939   -1.0619    5.4583 H       1  LIG1        0.0660
     40 H           5.7258   -1.3010    3.8025 H       1  LIG1        0.0660
     41 H           5.4801    0.3305    4.3997 H       1  LIG1        0.0660
@<TRIPOS>BOND
     1    28     9    1
     2     9     8    1
     3    31    11    1
     4    10    11    1
     5    10     7    1
     6     8     7   ar
     7     8     3   ar
     8     2     3    1
     9     2     1    1
    10    23     1    1
    11    11    30    1
    12    11    29    1
    13     7     6   ar
    14     3     4   ar
    15     1    24    1
    16     1    25    1
    17     6    27    1
    18     6     5   ar
    19     4    26    1
    20     4     5   ar
    21     5    12    1
    22    33    12    1
    23    12    32    1
    24    12    13    1
    25    34    15    1
    26    40    22    1
    27    21    22    1
    28    21    20    1
    29    13    20    1
    30    13    14    2
    31    41    22    1
    32    15    14    1
    33    15    35    1
    34    22    39    1
    35    20    19    2
    36    14    16    1
    37    19    17    1
    38    16    17    1
    39    16    36    1
    40    17    18    1
    41    18    37    1
    42    18    38    1
